File D:\ResearchLab\02_Projects\02_Projects\Tap chi XD_SFOA\code\SOO_MPJ\MPJ_Sap\SOO_Cost_W01\MPJ_1.$2k was saved on m/d/yy at h:mm:ss
 
TABLE:  "ACTIVE DEGREES OF FREEDOM"
   UX=Yes   UY=Yes   UZ=Yes   RX=Yes   RY=Yes   RZ=Yes
 
TABLE:  "ANALYSIS OPTIONS"
   Solver=Advanced   SolverProc=Auto   Force32Bit=No   StiffCase=None   GeomMod=None   HingeOpt="In Elements"   NumAThreads=0   MaxFileSize=0   NumDThreads=0   NumRThreads=0   UseMMFiles="Program Determined"   AllowDiff=No
 
TABLE:  "AREA AUTO MESH ASSIGNMENTS"
   Area=22024   MeshType="Number of Elements"   MeshGroup=ALL   Number1=3   Number2=3   LocalEdge=No   LocalFace=No   SuppEdge=No   SuppFace=No   SubMesh=No
   Area=22025   MeshType="Number of Elements"   MeshGroup=ALL   Number1=3   Number2=3   LocalEdge=No   LocalFace=No   SuppEdge=No   SuppFace=No   SubMesh=No
   Area=22026   MeshType="Number of Elements"   MeshGroup=ALL   Number1=3   Number2=3   LocalEdge=No   LocalFace=No   SuppEdge=No   SuppFace=No   SubMesh=No
   Area=22027   MeshType="Number of Elements"   MeshGroup=ALL   Number1=3   Number2=3   LocalEdge=No   LocalFace=No   SuppEdge=No   SuppFace=No   SubMesh=No
   Area=22028   MeshType="Number of Elements"   MeshGroup=ALL   Number1=3   Number2=3   LocalEdge=No   LocalFace=No   SuppEdge=No   SuppFace=No   SubMesh=No
   Area=22029   MeshType="Number of Elements"   MeshGroup=ALL   Number1=3   Number2=3   LocalEdge=No   LocalFace=No   SuppEdge=No   SuppFace=No   SubMesh=No
   Area=22030   MeshType="Number of Elements"   MeshGroup=ALL   Number1=3   Number2=3   LocalEdge=No   LocalFace=No   SuppEdge=No   SuppFace=No   SubMesh=No
   Area=22031   MeshType="Number of Elements"   MeshGroup=ALL   Number1=3   Number2=3   LocalEdge=No   LocalFace=No   SuppEdge=No   SuppFace=No   SubMesh=No
   Area=22032   MeshType="Number of Elements"   MeshGroup=ALL   Number1=3   Number2=3   LocalEdge=No   LocalFace=No   SuppEdge=No   SuppFace=No   SubMesh=No
   Area=22033   MeshType="Number of Elements"   MeshGroup=ALL   Number1=3   Number2=3   LocalEdge=No   LocalFace=No   SuppEdge=No   SuppFace=No   SubMesh=No
   Area=22034   MeshType="Number of Elements"   MeshGroup=ALL   Number1=3   Number2=3   LocalEdge=No   LocalFace=No   SuppEdge=No   SuppFace=No   SubMesh=No
   Area=22035   MeshType="Number of Elements"   MeshGroup=ALL   Number1=3   Number2=3   LocalEdge=No   LocalFace=No   SuppEdge=No   SuppFace=No   SubMesh=No
   Area=22036   MeshType="Number of Elements"   MeshGroup=ALL   Number1=3   Number2=3   LocalEdge=No   LocalFace=No   SuppEdge=No   SuppFace=No   SubMesh=No
   Area=22037   MeshType="Number of Elements"   MeshGroup=ALL   Number1=3   Number2=3   LocalEdge=No   LocalFace=No   SuppEdge=No   SuppFace=No   SubMesh=No
   Area=22038   MeshType="Number of Elements"   MeshGroup=ALL   Number1=3   Number2=3   LocalEdge=No   LocalFace=No   SuppEdge=No   SuppFace=No   SubMesh=No
   Area=22039   MeshType="Number of Elements"   MeshGroup=ALL   Number1=3   Number2=3   LocalEdge=No   LocalFace=No   SuppEdge=No   SuppFace=No   SubMesh=No
   Area=22040   MeshType="Number of Elements"   MeshGroup=ALL   Number1=3   Number2=3   LocalEdge=No   LocalFace=No   SuppEdge=No   SuppFace=No   SubMesh=No
   Area=22041   MeshType="Number of Elements"   MeshGroup=ALL   Number1=3   Number2=3   LocalEdge=No   LocalFace=No   SuppEdge=No   SuppFace=No   SubMesh=No
   Area=22042   MeshType="Number of Elements"   MeshGroup=ALL   Number1=3   Number2=3   LocalEdge=No   LocalFace=No   SuppEdge=No   SuppFace=No   SubMesh=No
   Area=22043   MeshType="Number of Elements"   MeshGroup=ALL   Number1=3   Number2=3   LocalEdge=No   LocalFace=No   SuppEdge=No   SuppFace=No   SubMesh=No
# ... 20 like lines cut
 
TABLE:  "AREA LOADS - UNIFORM"
   Area=22024   LoadPat=LL   CoordSys=GLOBAL   Dir=Gravity   UnifLoad=1.00034158457019
   Area=22025   LoadPat=LL   CoordSys=GLOBAL   Dir=Gravity   UnifLoad=1.00034158457019
   Area=22026   LoadPat=LL   CoordSys=GLOBAL   Dir=Gravity   UnifLoad=1.00034158457019
   Area=22027   LoadPat=LL   CoordSys=GLOBAL   Dir=Gravity   UnifLoad=1.00034158457019
   Area=22028   LoadPat=LL   CoordSys=GLOBAL   Dir=Gravity   UnifLoad=1.00034158457019
   Area=22029   LoadPat=LL   CoordSys=GLOBAL   Dir=Gravity   UnifLoad=1.00034158457019
   Area=22030   LoadPat=LL   CoordSys=GLOBAL   Dir=Gravity   UnifLoad=1.00034158457019
   Area=22031   LoadPat=LL   CoordSys=GLOBAL   Dir=Gravity   UnifLoad=1.00034158457019
   Area=22032   LoadPat=LL   CoordSys=GLOBAL   Dir=Gravity   UnifLoad=1.00034158457019
   Area=22033   LoadPat=LL   CoordSys=GLOBAL   Dir=Gravity   UnifLoad=1.00034158457019
   Area=22034   LoadPat=LL   CoordSys=GLOBAL   Dir=Gravity   UnifLoad=1.00034158457019
   Area=22035   LoadPat=LL   CoordSys=GLOBAL   Dir=Gravity   UnifLoad=1.00034158457019
   Area=22036   LoadPat=LL   CoordSys=GLOBAL   Dir=Gravity   UnifLoad=1.00034158457019
   Area=22037   LoadPat=LL   CoordSys=GLOBAL   Dir=Gravity   UnifLoad=1.00034158457019
   Area=22038   LoadPat=LL   CoordSys=GLOBAL   Dir=Gravity   UnifLoad=1.00034158457019
   Area=22039   LoadPat=LL   CoordSys=GLOBAL   Dir=Gravity   UnifLoad=1.00034158457019
   Area=22040   LoadPat=LL   CoordSys=GLOBAL   Dir=Gravity   UnifLoad=1.00034158457019
   Area=22041   LoadPat=LL   CoordSys=GLOBAL   Dir=Gravity   UnifLoad=1.00034158457019
   Area=22042   LoadPat=LL   CoordSys=GLOBAL   Dir=Gravity   UnifLoad=1.00034158457019
   Area=22043   LoadPat=LL   CoordSys=GLOBAL   Dir=Gravity   UnifLoad=1.00034158457019
# ... 20 like lines cut
 
TABLE:  "AREA SECTION ASSIGNMENTS"
   Area=22024   Section=Deck   MatProp=Default
   Area=22025   Section=Deck   MatProp=Default
   Area=22026   Section=Deck   MatProp=Default
   Area=22027   Section=Deck   MatProp=Default
   Area=22028   Section=Deck   MatProp=Default
   Area=22029   Section=Deck   MatProp=Default
   Area=22030   Section=Deck   MatProp=Default
   Area=22031   Section=Deck   MatProp=Default
   Area=22032   Section=Deck   MatProp=Default
   Area=22033   Section=Deck   MatProp=Default
   Area=22034   Section=Deck   MatProp=Default
   Area=22035   Section=Deck   MatProp=Default
   Area=22036   Section=Deck   MatProp=Default
   Area=22037   Section=Deck   MatProp=Default
   Area=22038   Section=Deck   MatProp=Default
   Area=22039   Section=Deck   MatProp=Default
   Area=22040   Section=Deck   MatProp=Default
   Area=22041   Section=Deck   MatProp=Default
   Area=22042   Section=Deck   MatProp=Default
   Area=22043   Section=Deck   MatProp=Default
# ... 20 like lines cut
 
TABLE:  "AREA SECTION PROPERTIES"
   Section=Deck   Material=BTCT   MatAngle=0   AreaType=Shell   Type=Shell-Thin   DrillDOF=Yes   Thickness=0.3   BendThick=0.3   Color=Green   F11Mod=1   F22Mod=1   F12Mod=1   M11Mod=1   M22Mod=1   M12Mod=1   V13Mod=1   V23Mod=1   MMod=1 _
        WMod=1   Notes="Added 24-Feb-23 16:56:47"
 
TABLE:  "AREA SECTION PROPERTY DESIGN PARAMETERS"
   Section=Deck   RebarMat=None   RebarOpt=Default
 
TABLE:  "AREA SECTION PROPERTY - TIME DEPENDENT"
   Section=Deck   TypeSize=User   AutoSFSize=1   UserValSize=0.1
 
TABLE:  "AUTO COMBINATION OPTION DATA 01 - GENERAL"
   DesignType=Concrete   AutoGen=Yes
 
TABLE:  "AUTO COMBINATION OPTION DATA 02 - USER DATA"
   DesignType=Concrete   LSType=Strength   LCName=DEAD
   DesignType=Concrete   LSType=Strength   LCName=LL
 
TABLE:  "AUTO WAVE 3 - WAVE CHARACTERISTICS - GENERAL"
   WaveChar=Default   WaveType="From Theory"   KinFactor=1   SWaterDepth=45   WaveHeight=18   WavePeriod=12   WaveTheory=Linear
 
TABLE:  "CASE - MODAL 1 - GENERAL"
   Case=MODAL   ModeType=Eigen   MaxNumModes=12   MinNumModes=1   EigenShift=0   EigenCutoff=0   EigenTol=1E-09   AutoShift=Yes
 
TABLE:  "CASE - STATIC 1 - LOAD ASSIGNMENTS"
   Case=DEAD   LoadType="Load pattern"   LoadName=DEAD   LoadSF=1
   Case=LL   LoadType="Load pattern"   LoadName=LL   LoadSF=1
 
TABLE:  "COMBINATION DEFINITIONS"
   ComboName=COMB1   ComboType="Linear Add"   AutoDesign=No   CaseName=DEAD   ScaleFactor=1   SteelDesign=None   ConcDesign=Strength   AlumDesign=None   ColdDesign=None
   ComboName=COMB2   ComboType="Linear Add"   AutoDesign=No   CaseName=DEAD   ScaleFactor=1   SteelDesign=None   ConcDesign=Strength   AlumDesign=None   ColdDesign=None
   ComboName=COMB2   CaseName=LL   ScaleFactor=1
   ComboName=BAO   ComboType=Envelope   AutoDesign=No   CaseName=COMB1   ScaleFactor=1   SteelDesign=None   ConcDesign=Strength   AlumDesign=None   ColdDesign=None
   ComboName=BAO   CaseName=COMB2   ScaleFactor=1
   ComboName=DCON1   ComboType="Linear Add"   AutoDesign=Yes   CaseName=DEAD   ScaleFactor=1.4   SteelDesign=None   ConcDesign=Strength   AlumDesign=None   ColdDesign=None   GUID=bb4fff9a-98b5-44d1-9fde-34d92700a8e9   Notes="Dead Only; Strength"
   ComboName=DCON2   ComboType="Linear Add"   AutoDesign=Yes   CaseName=DEAD   ScaleFactor=1.25   SteelDesign=None   ConcDesign=Strength   AlumDesign=None   ColdDesign=None   GUID=505bcda7-6fac-4dd0-b03e-c591d1ffc6ce   Notes="Dead + Live; Strength"
   ComboName=DCON2   CaseName=LL   ScaleFactor=1.5
 
TABLE:  "CONNECTIVITY - AREA"
   Area=22024   Joint1=64492   Joint2=64421   Joint3=64380   Joint4=64379   GUID=6198263b-0dde-480f-9427-a2bfd36a60a6
   Area=22025   Joint1=64379   Joint2=64380   Joint3=64382   Joint4=64381   GUID=d925ee04-fd2b-4116-83d5-b6e1537ef479
   Area=22026   Joint1=64381   Joint2=64382   Joint3=64384   Joint4=64383   GUID=9f77084e-42f7-48a8-a2e2-b4a3303d9848
   Area=22027   Joint1=64383   Joint2=64384   Joint3=64386   Joint4=64385   GUID=125d5970-fdcd-4eff-ba4d-06335c6cdfe9
   Area=22028   Joint1=64385   Joint2=64386   Joint3=64388   Joint4=64387   GUID=3f42ad3d-7b02-4532-a593-a3eff38224cf
   Area=22029   Joint1=64387   Joint2=64388   Joint3=64390   Joint4=64389   GUID=aae44f9f-564c-4069-8369-b89c5fd13828
   Area=22030   Joint1=64389   Joint2=64390   Joint3=64392   Joint4=64391   GUID=736acdd6-c825-411b-95e0-38c6886286f8
   Area=22031   Joint1=64391   Joint2=64392   Joint3=64425   Joint4=64493   GUID=80778dfb-249b-4882-8fcc-133fdb4a041a
   Area=22032   Joint1=64421   Joint2=64422   Joint3=64393   Joint4=64380   GUID=124e8992-68c3-4e76-b2b1-bdaf659ca66a
   Area=22033   Joint1=64380   Joint2=64393   Joint3=64394   Joint4=64382   GUID=eee4d10d-55da-4981-b106-c93c9d86942a
   Area=22034   Joint1=64382   Joint2=64394   Joint3=64395   Joint4=64384   GUID=e8ad5404-a02f-4f18-88e1-d58577c63fcb
   Area=22035   Joint1=64384   Joint2=64395   Joint3=64396   Joint4=64386   GUID=0149bee5-cc36-4450-b903-dcb227e1ac6c
   Area=22036   Joint1=64386   Joint2=64396   Joint3=64397   Joint4=64388   GUID=e3db6572-cad6-4a6d-a42b-9d5ed565aa4a
   Area=22037   Joint1=64388   Joint2=64397   Joint3=64398   Joint4=64390   GUID=9b09eb18-2ecd-4b74-b3a1-8ca53f9c0676
   Area=22038   Joint1=64390   Joint2=64398   Joint3=64399   Joint4=64392   GUID=9d7101f3-1a72-4996-99be-2011588b7188
   Area=22039   Joint1=64392   Joint2=64399   Joint3=64426   Joint4=64425   GUID=949c7a3f-6a07-448f-9e7e-20ea0ad00a32
   Area=22040   Joint1=64422   Joint2=64423   Joint3=64400   Joint4=64393   GUID=5a477974-179d-4f9a-b1e4-32ae0d8de13f
   Area=22041   Joint1=64393   Joint2=64400   Joint3=64401   Joint4=64394   GUID=b3231d75-3133-42a2-938d-09b72a9f087d
   Area=22042   Joint1=64394   Joint2=64401   Joint3=64402   Joint4=64395   GUID=21dd3fdb-1613-457f-9ea4-11e679400138
   Area=22043   Joint1=64395   Joint2=64402   Joint3=64403   Joint4=64396   GUID=86ae2c94-118a-4f68-aacc-9e1893bb918b
   Area=22044   Joint1=64396   Joint2=64403   Joint3=64404   Joint4=64397   GUID=318680b8-b299-48fa-a4fe-333f8198ac1a
   Area=22045   Joint1=64397   Joint2=64404   Joint3=64405   Joint4=64398   GUID=bdb1853c-99c6-431c-8f9e-683e1e75cd00
   Area=22046   Joint1=64398   Joint2=64405   Joint3=64406   Joint4=64399   GUID=15f8c108-80b4-4edc-aeb0-d4a02129c6e6
   Area=22047   Joint1=64399   Joint2=64406   Joint3=64427   Joint4=64426   GUID=5984680d-faf0-4925-99df-acdd15468c8c
   Area=22048   Joint1=64423   Joint2=64424   Joint3=64407   Joint4=64400   GUID=26db6d60-00df-4225-ae83-22fdabf44558
   Area=22049   Joint1=64400   Joint2=64407   Joint3=64408   Joint4=64401   GUID=98f6c9c9-d3ed-4d00-947c-8495049ccc04
   Area=22050   Joint1=64401   Joint2=64408   Joint3=64409   Joint4=64402   GUID=dc60da83-15ec-42fc-8f5f-10e6e772c7d9
   Area=22051   Joint1=64402   Joint2=64409   Joint3=64410   Joint4=64403   GUID=15adb69c-f54e-4a79-acf8-cfb4f5a01937
   Area=22052   Joint1=64403   Joint2=64410   Joint3=64411   Joint4=64404   GUID=ebaedcb9-9de8-4327-9dca-ce987ba94615
   Area=22053   Joint1=64404   Joint2=64411   Joint3=64412   Joint4=64405   GUID=018e9987-2d16-4d2c-8810-307bdd62d740
   Area=22054   Joint1=64405   Joint2=64412   Joint3=64413   Joint4=64406   GUID=dd900963-e961-4684-badb-49be96e1c722
   Area=22055   Joint1=64406   Joint2=64413   Joint3=64428   Joint4=64427   GUID=3b4ac794-7728-4740-beac-bbaa5c2a61f1
   Area=22056   Joint1=64424   Joint2=64494   Joint3=64414   Joint4=64407   GUID=f2466f67-6f81-4a0b-9fbe-a871720cbf8e
   Area=22057   Joint1=64407   Joint2=64414   Joint3=64415   Joint4=64408   GUID=cd3ef47e-f011-4de8-839f-426705c07c20
   Area=22058   Joint1=64408   Joint2=64415   Joint3=64416   Joint4=64409   GUID=b1802861-d0d3-4cd6-a8ce-1c0531a4b3e1
   Area=22059   Joint1=64409   Joint2=64416   Joint3=64417   Joint4=64410   GUID=59053ef4-2bab-4a65-8271-99b29e45e469
   Area=22060   Joint1=64410   Joint2=64417   Joint3=64418   Joint4=64411   GUID=890ef1dd-8224-46f2-8407-475d6f9ae514
   Area=22061   Joint1=64411   Joint2=64418   Joint3=64419   Joint4=64412   GUID=748925cd-1075-49b5-a0c2-5fcaddaf9f92
   Area=22062   Joint1=64412   Joint2=64419   Joint3=64420   Joint4=64413   GUID=0689f93c-de36-4ee4-96b4-2fbc223bac14
   Area=22063   Joint1=64413   Joint2=64420   Joint3=64495   Joint4=64428   GUID=13dec3db-a80d-477d-8910-f213535a37ff
 
TABLE:  "CONNECTIVITY - FRAME"
   Frame=71175   JointI=64379   JointJ=64380   IsCurved=No   GUID=275c2d21-4ddd-4bde-a758-160e7689db3d
   Frame=71176   JointI=64381   JointJ=64382   IsCurved=No   GUID=c1a075cb-4305-4d2e-ba99-cef4507d457b
   Frame=71177   JointI=64383   JointJ=64384   IsCurved=No   GUID=3bb6119e-74a7-4025-8103-c562ff2e0bca
   Frame=71178   JointI=64385   JointJ=64386   IsCurved=No   GUID=34d32646-cc85-46e6-8eac-61a34564b294
   Frame=71179   JointI=64387   JointJ=64388   IsCurved=No   GUID=637c4c1b-16b8-40d7-9b81-8b8ed83fa06c
   Frame=71180   JointI=64389   JointJ=64390   IsCurved=No   GUID=52bac0ba-ebcd-49dc-9b3c-2dd37fac822b
   Frame=71181   JointI=64391   JointJ=64392   IsCurved=No   GUID=95b2371e-38ee-49eb-8120-e69f861c8a0e
   Frame=71182   JointI=64380   JointJ=64393   IsCurved=No   GUID=320b1069-4afc-4411-947c-46e88b78987c
   Frame=71183   JointI=64382   JointJ=64394   IsCurved=No   GUID=bca268c3-9cd4-4116-ace7-3e0f70bdaf54
   Frame=71184   JointI=64384   JointJ=64395   IsCurved=No   GUID=49faa837-7628-45ec-86a5-d99416c1c3e2
   Frame=71185   JointI=64386   JointJ=64396   IsCurved=No   GUID=b010bdec-362e-4b3b-88fe-aaafbe1c2022
   Frame=71186   JointI=64388   JointJ=64397   IsCurved=No   GUID=61e7e642-6aeb-4da4-8947-5e6df259e1ed
   Frame=71187   JointI=64390   JointJ=64398   IsCurved=No   GUID=8301e3e3-d90d-42e1-8eb3-a5edf1a51da3
   Frame=71188   JointI=64392   JointJ=64399   IsCurved=No   GUID=8b537ac5-9314-43bf-9c57-7e4f5cca03d7
   Frame=71189   JointI=64393   JointJ=64400   IsCurved=No   GUID=f9eefd81-1e8a-4d8d-b4f4-27f847aa5d77
   Frame=71190   JointI=64394   JointJ=64401   IsCurved=No   GUID=6a105681-97d0-449e-96b0-7b09213502c2
   Frame=71191   JointI=64395   JointJ=64402   IsCurved=No   GUID=99e1d6f3-2587-4560-9251-2125d4d6267a
   Frame=71192   JointI=64396   JointJ=64403   IsCurved=No   GUID=1e3967e1-8721-47e1-b862-ea355128345d
   Frame=71193   JointI=64397   JointJ=64404   IsCurved=No   GUID=0b8fee01-43c7-44ce-8d09-e250d686ef0c
   Frame=71194   JointI=64398   JointJ=64405   IsCurved=No   GUID=52ef70d0-c7e5-42de-aaed-2ae5191d8ce3
   Frame=71195   JointI=64399   JointJ=64406   IsCurved=No   GUID=bc45edfd-8d3d-45d4-b39a-a7a44dda6a4d
   Frame=71196   JointI=64400   JointJ=64407   IsCurved=No   GUID=6af1071e-1263-44b4-a12e-f0368305a8a8
   Frame=71197   JointI=64401   JointJ=64408   IsCurved=No   GUID=f769c0f3-d4c1-4962-9e76-32d5c0063b1e
   Frame=71198   JointI=64402   JointJ=64409   IsCurved=No   GUID=d05d643d-faa9-4245-bf87-2af450172792
   Frame=71199   JointI=64403   JointJ=64410   IsCurved=No   GUID=cc4f2f6d-8205-4392-bc5a-c3f6a2739922
   Frame=71200   JointI=64404   JointJ=64411   IsCurved=No   GUID=17cd0b89-87b2-47f1-800c-35cb7b61b3e0
   Frame=71201   JointI=64405   JointJ=64412   IsCurved=No   GUID=e5242e62-c430-43b6-8319-ec8d8fa5fce4
   Frame=71202   JointI=64406   JointJ=64413   IsCurved=No   GUID=e90b7db7-6f5d-49eb-a10d-913989b7dbb9
   Frame=71203   JointI=64407   JointJ=64414   IsCurved=No   GUID=9860ee5c-7382-4bbd-9c11-a7f7a4130164
   Frame=71204   JointI=64408   JointJ=64415   IsCurved=No   GUID=1172dc9d-b607-46d7-9bf4-7aa4a885af18
   Frame=71205   JointI=64409   JointJ=64416   IsCurved=No   GUID=80af80ef-9a63-4d58-b90a-1ed8a50f6d3e
   Frame=71206   JointI=64410   JointJ=64417   IsCurved=No   GUID=37ae3902-e31c-4f45-a8e8-b26bb097fd2b
   Frame=71207   JointI=64411   JointJ=64418   IsCurved=No   GUID=08efec3f-c9fd-4bbc-938b-a062b942b03b
   Frame=71208   JointI=64412   JointJ=64419   IsCurved=No   GUID=2d4a2497-65de-4c7a-ade4-855bc7e4620e
   Frame=71209   JointI=64413   JointJ=64420   IsCurved=No   GUID=cb2f6940-881d-44ed-b3f5-398f6f6067ab
   Frame=71210   JointI=64421   JointJ=64380   IsCurved=No   GUID=7ee8d140-ea3f-4e8e-b045-8184ef2d8542
   Frame=71211   JointI=64422   JointJ=64393   IsCurved=No   GUID=ff9fc0ca-097d-42e3-8a7a-b8456e97b44c
   Frame=71212   JointI=64423   JointJ=64400   IsCurved=No   GUID=961c142b-4321-4cd1-8a65-47c631532feb
   Frame=71213   JointI=64424   JointJ=64407   IsCurved=No   GUID=f5825322-8790-4b19-8b1a-7fe82ab62404
   Frame=71214   JointI=64380   JointJ=64382   IsCurved=No   GUID=02bb2733-6ebd-44dc-abdb-c69fb66c3c77
   Frame=71215   JointI=64393   JointJ=64394   IsCurved=No   GUID=7c2fb317-dfaa-44af-ab40-7943e898dcf9
   Frame=71216   JointI=64400   JointJ=64401   IsCurved=No   GUID=10088c1f-d724-49ca-8901-fba0541fa4dd
   Frame=71217   JointI=64407   JointJ=64408   IsCurved=No   GUID=382692c1-146e-4da9-a417-4b9636413be0
   Frame=71218   JointI=64382   JointJ=64384   IsCurved=No   GUID=92e42e7b-3d9c-4489-b66a-ad060030f89a
   Frame=71219   JointI=64394   JointJ=64395   IsCurved=No   GUID=6852fc19-59ff-48d3-9161-175ff140114f
   Frame=71220   JointI=64401   JointJ=64402   IsCurved=No   GUID=8407b7c3-596c-4165-b312-ab0572371891
   Frame=71221   JointI=64408   JointJ=64409   IsCurved=No   GUID=cfdb037b-b34e-4597-be63-e74c50cfa175
   Frame=71222   JointI=64384   JointJ=64386   IsCurved=No   GUID=cc4e3f8c-a83c-4697-b350-22838c8348b8
   Frame=71223   JointI=64395   JointJ=64396   IsCurved=No   GUID=fce52806-21f6-4a8b-9144-b8a499bbc498
   Frame=71224   JointI=64402   JointJ=64403   IsCurved=No   GUID=0d3783c1-3186-4308-8cbd-a6b3f0944d58
   Frame=71225   JointI=64409   JointJ=64410   IsCurved=No   GUID=5ddc62a1-d309-41ee-ae3e-f6e146902ea1
   Frame=71226   JointI=64386   JointJ=64388   IsCurved=No   GUID=f5bf9f10-f2ce-42ab-a139-15abf54598c8
   Frame=71227   JointI=64396   JointJ=64397   IsCurved=No   GUID=99a3fd0c-9306-4481-9e78-57c6a88fd58d
   Frame=71228   JointI=64403   JointJ=64404   IsCurved=No   GUID=55728469-5152-4b85-b59b-d297d26c97f3
   Frame=71229   JointI=64410   JointJ=64411   IsCurved=No   GUID=c4871ab8-f974-4726-acf4-6703d8cceeba
   Frame=71230   JointI=64388   JointJ=64390   IsCurved=No   GUID=3a44b53e-6b19-4161-a267-3d5f69027383
   Frame=71231   JointI=64397   JointJ=64398   IsCurved=No   GUID=4b6ba9a3-20c3-4c95-a0a3-12ea686d0008
   Frame=71232   JointI=64404   JointJ=64405   IsCurved=No   GUID=2582ec08-23c8-4221-98f6-eb6c54a4bd6f
   Frame=71233   JointI=64411   JointJ=64412   IsCurved=No   GUID=84528bfb-7298-4fa4-903d-677fa747ae92
   Frame=71234   JointI=64390   JointJ=64392   IsCurved=No   GUID=f0428389-5b5f-4b63-a6f3-c2bf339f2417
   Frame=71235   JointI=64398   JointJ=64399   IsCurved=No   GUID=c4d6e2c5-8837-4904-9622-27b6393c5423
   Frame=71236   JointI=64405   JointJ=64406   IsCurved=No   GUID=6145d562-6bf2-4a3f-bc5d-4b47b8626176
   Frame=71237   JointI=64412   JointJ=64413   IsCurved=No   GUID=5dad47d6-1a82-48d4-a5d1-b63f1a0fe240
   Frame=71238   JointI=64392   JointJ=64425   IsCurved=No   GUID=7bc4a6f8-9fb2-4c66-b26c-d8435250beed
   Frame=71239   JointI=64399   JointJ=64426   IsCurved=No   GUID=e6d27929-725a-4e1a-a605-90b369a03eb7
   Frame=71240   JointI=64406   JointJ=64427   IsCurved=No   GUID=3d93fd4a-8c46-4543-945b-33e26f79b5e2
   Frame=71241   JointI=64413   JointJ=64428   IsCurved=No   GUID=3cc70db3-ea42-45cf-999c-71eb1cf61bda
   Frame=71242   JointI=64380   JointJ=64429   IsCurved=No   GUID=5f2fcb97-c169-4ac9-aedd-c9ba588c16ce
   Frame=71243   JointI=64429   JointJ=64430   IsCurved=No   GUID=0957c412-2ee1-481b-af11-d05c9948dbb6
   Frame=71244   JointI=64430   JointJ=64431   IsCurved=No   GUID=db9f5730-ff4c-4e0c-88e5-1f0d9f685303
   Frame=71245   JointI=64382   JointJ=64432   IsCurved=No   GUID=19136e10-798e-491f-ae47-08be27fb84e5
   Frame=71246   JointI=64432   JointJ=64433   IsCurved=No   GUID=8ad10faf-c77b-4262-9485-248f1e778adb
   Frame=71247   JointI=64433   JointJ=64434   IsCurved=No   GUID=df1241b7-2918-40a0-b284-eb48fc026e37
   Frame=71248   JointI=64384   JointJ=64435   IsCurved=No   GUID=199835e3-03f5-4307-a160-236dbbf7bcd0
   Frame=71249   JointI=64435   JointJ=64436   IsCurved=No   GUID=afb94080-77ef-46d9-b414-2484afc9551f
   Frame=71250   JointI=64436   JointJ=64437   IsCurved=No   GUID=a47cc66e-c6e2-4984-be57-490f4a9e50f7
   Frame=71251   JointI=64386   JointJ=64438   IsCurved=No   GUID=5d1d2b0e-0391-42c7-a19f-6d67bc357f14
   Frame=71252   JointI=64438   JointJ=64439   IsCurved=No   GUID=798f7cee-4221-4e4e-987b-c2e17ab8c811
   Frame=71253   JointI=64439   JointJ=64440   IsCurved=No   GUID=2e82fbc4-0381-4edb-bb4b-d2892dffd6fb
   Frame=71254   JointI=64388   JointJ=64441   IsCurved=No   GUID=45bc3418-70a7-4146-82cf-c24f28e1329c
   Frame=71255   JointI=64441   JointJ=64442   IsCurved=No   GUID=2b279041-8b80-4894-bf75-a3baf69aae11
   Frame=71256   JointI=64442   JointJ=64443   IsCurved=No   GUID=9b4de5a6-1656-45a8-8934-56662a43458b
   Frame=71257   JointI=64390   JointJ=64444   IsCurved=No   GUID=0c788390-1aa2-4e29-971a-b5caf7fa8c27
   Frame=71258   JointI=64444   JointJ=64445   IsCurved=No   GUID=77245659-7c7d-4b07-8e3f-146a969a16a8
   Frame=71259   JointI=64445   JointJ=64446   IsCurved=No   GUID=83c1fe58-d91c-4c13-9dbd-6710a9bd81f2
   Frame=71260   JointI=64392   JointJ=64447   IsCurved=No   GUID=580d567b-64a2-4881-8e69-11ad2f30e43a
   Frame=71261   JointI=64447   JointJ=64448   IsCurved=No   GUID=a1c6b0ff-01d7-4282-a730-b0d993cfaeb2
   Frame=71262   JointI=64448   JointJ=64449   IsCurved=No   GUID=d0e74d53-16dc-4278-9335-87b2a09ee0e3
   Frame=71263   JointI=64393   JointJ=64450   IsCurved=No   GUID=f0f48fda-e73d-420f-a2d6-ed26e065fc4b
   Frame=71264   JointI=64450   JointJ=64451   IsCurved=No   GUID=7fd0cc76-ad28-44d4-a43b-4206735a564f
   Frame=71265   JointI=64394   JointJ=64452   IsCurved=No   GUID=a9e0d42f-7b73-4e93-a8b2-9c68014dda53
   Frame=71266   JointI=64452   JointJ=64453   IsCurved=No   GUID=9baed3e8-45e0-448d-b30f-70de41b2f329
   Frame=71267   JointI=64395   JointJ=64454   IsCurved=No   GUID=6adf9c87-bdd8-4c7c-a2a1-65341e09b8bb
   Frame=71268   JointI=64454   JointJ=64455   IsCurved=No   GUID=3779de47-5af6-4162-b88d-fc057fd7ec4a
   Frame=71269   JointI=64396   JointJ=64456   IsCurved=No   GUID=bb46c175-2523-4ca1-9b0c-8e0c9ee9de45
   Frame=71270   JointI=64456   JointJ=64457   IsCurved=No   GUID=c67192a9-ab92-4618-a790-fa0fb9a410c6
   Frame=71271   JointI=64397   JointJ=64458   IsCurved=No   GUID=d3c2d6da-1aea-4386-86c2-9a918d6431b6
   Frame=71272   JointI=64458   JointJ=64459   IsCurved=No   GUID=1886c083-41e0-45dc-8223-9bb5c73c5146
   Frame=71273   JointI=64398   JointJ=64460   IsCurved=No   GUID=c6e4a55e-34dd-4705-989b-f7a66c87d79c
   Frame=71274   JointI=64460   JointJ=64461   IsCurved=No   GUID=bcec0645-668c-4a78-9b3d-1d5f2e75cf92
   Frame=71275   JointI=64399   JointJ=64462   IsCurved=No   GUID=cd0dcfe4-d5f7-4f57-9273-a7e1f4c5e958
   Frame=71276   JointI=64462   JointJ=64463   IsCurved=No   GUID=b26e3742-dc45-4679-9f04-cd2417ef1826
   Frame=71277   JointI=64400   JointJ=64464   IsCurved=No   GUID=ba6480d9-7c14-43ec-91ae-79c62f48a926
   Frame=71278   JointI=64464   JointJ=64465   IsCurved=No   GUID=563b632a-3304-4d07-85a7-bb052040e236
   Frame=71279   JointI=64401   JointJ=64466   IsCurved=No   GUID=f2367a37-39a1-4aad-b52e-24a70fa88000
   Frame=71280   JointI=64466   JointJ=64467   IsCurved=No   GUID=9003dd46-9cb7-4d0c-a3ac-ab78f6902027
   Frame=71281   JointI=64402   JointJ=64468   IsCurved=No   GUID=20a9e4a6-c264-4e49-b1a8-234ddc1292d3
   Frame=71282   JointI=64468   JointJ=64469   IsCurved=No   GUID=cb3af56f-ca71-45d0-8f20-0d37823babf7
   Frame=71283   JointI=64403   JointJ=64470   IsCurved=No   GUID=ac317f69-ad7d-4d15-8dd2-f8b4ba7f8daf
   Frame=71284   JointI=64470   JointJ=64471   IsCurved=No   GUID=018cde00-4b32-405f-ad77-74229100eae8
   Frame=71285   JointI=64404   JointJ=64472   IsCurved=No   GUID=a2884316-4de7-4a5a-9c50-db220aad20f7
   Frame=71286   JointI=64472   JointJ=64473   IsCurved=No   GUID=08e69b1a-e783-4a49-94a8-974a7484a433
   Frame=71287   JointI=64405   JointJ=64474   IsCurved=No   GUID=36d95d32-b464-427e-8d7c-36263117d77f
   Frame=71288   JointI=64474   JointJ=64475   IsCurved=No   GUID=81b6fe35-8e91-4245-9d25-8ac7a2c1f10a
   Frame=71289   JointI=64406   JointJ=64476   IsCurved=No   GUID=76646d96-aafb-4923-b151-e776396cf626
   Frame=71290   JointI=64476   JointJ=64477   IsCurved=No   GUID=77dfe69b-8171-4670-a4fe-ea02ced8b1ff
   Frame=71291   JointI=64407   JointJ=64478   IsCurved=No   GUID=b867d127-76a5-4ad8-ad27-612e17275fd4
   Frame=71292   JointI=64478   JointJ=64479   IsCurved=No   GUID=83e3c86b-0b8d-4174-9b72-795e5b7846da
   Frame=71293   JointI=64408   JointJ=64480   IsCurved=No   GUID=326209e5-2be7-475c-84aa-24ac12e0d845
   Frame=71294   JointI=64480   JointJ=64481   IsCurved=No   GUID=9d10d858-3a67-4680-b527-1f6c45188e7e
   Frame=71295   JointI=64409   JointJ=64482   IsCurved=No   GUID=1083f6f7-d4bc-4f63-800e-fd99d89cb015
   Frame=71296   JointI=64482   JointJ=64483   IsCurved=No   GUID=086e1dea-e25d-4541-8149-0fb0a5061ce1
   Frame=71297   JointI=64410   JointJ=64484   IsCurved=No   GUID=dfd3c4bd-c5d1-4042-bf3f-6c73cd49a7f9
   Frame=71298   JointI=64484   JointJ=64485   IsCurved=No   GUID=740d2251-65f5-4dc2-b7f9-9313bae4456d
   Frame=71299   JointI=64411   JointJ=64486   IsCurved=No   GUID=f87c6029-ae02-464e-9e18-33c58150edbc
   Frame=71300   JointI=64486   JointJ=64487   IsCurved=No   GUID=f222cd18-4369-47d5-a9b1-92ad2787b12d
   Frame=71301   JointI=64412   JointJ=64488   IsCurved=No   GUID=155e2997-8cbb-4c68-9bb5-488981b8a2ea
   Frame=71302   JointI=64488   JointJ=64489   IsCurved=No   GUID=2f097c7a-496b-4140-aabb-b91e0709c8f2
   Frame=71303   JointI=64413   JointJ=64490   IsCurved=No   GUID=27d15c67-a9db-4f18-8804-59f00857dfa8
   Frame=71304   JointI=64490   JointJ=64491   IsCurved=No   GUID=9facde08-4273-40bc-92b4-5e1777d7634c
   Frame=71305   JointI=64429   JointJ=64432   IsCurved=No   GUID=d6b7e9a0-2a3e-4baa-ba73-8a549ab8cf1b
   Frame=71306   JointI=64432   JointJ=64435   IsCurved=No   GUID=017140de-3425-4ca4-ad96-b65bb63c77ec
   Frame=71307   JointI=64435   JointJ=64438   IsCurved=No   GUID=e12a7232-9a0b-46d5-b8bf-fb5e114d37fc
   Frame=71308   JointI=64438   JointJ=64441   IsCurved=No   GUID=faee75a2-4816-4610-9611-a753c10f81aa
   Frame=71309   JointI=64441   JointJ=64444   IsCurved=No   GUID=eacd8790-c5e8-48b8-a125-a6ffb7e750fa
   Frame=71310   JointI=64444   JointJ=64447   IsCurved=No   GUID=cddf9d95-1502-4a9c-9686-ff04b039adf8
 
TABLE:  "COORDINATE SYSTEMS"
   Name=GLOBAL   Type=Cartesian   X=0   Y=0   Z=0   AboutZ=0   AboutY=0   AboutX=0
 
TABLE:  "DATABASE DOCUMENTATION"
 
TABLE:  "DATABASE FORMAT TYPES"
   UnitsCurr=Yes   OverrideE=No
 
TABLE:  "FRAME AUTO MESH ASSIGNMENTS"
   Frame=71175   AutoMesh=Yes   AtJoints=Yes   AtFrames=No   NumSegments=0   MaxLength=0   MaxDegrees=0
   Frame=71176   AutoMesh=Yes   AtJoints=Yes   AtFrames=No   NumSegments=0   MaxLength=0   MaxDegrees=0
   Frame=71177   AutoMesh=Yes   AtJoints=Yes   AtFrames=No   NumSegments=0   MaxLength=0   MaxDegrees=0
   Frame=71178   AutoMesh=Yes   AtJoints=Yes   AtFrames=No   NumSegments=0   MaxLength=0   MaxDegrees=0
   Frame=71179   AutoMesh=Yes   AtJoints=Yes   AtFrames=No   NumSegments=0   MaxLength=0   MaxDegrees=0
   Frame=71180   AutoMesh=Yes   AtJoints=Yes   AtFrames=No   NumSegments=0   MaxLength=0   MaxDegrees=0
   Frame=71181   AutoMesh=Yes   AtJoints=Yes   AtFrames=No   NumSegments=0   MaxLength=0   MaxDegrees=0
   Frame=71182   AutoMesh=Yes   AtJoints=Yes   AtFrames=No   NumSegments=0   MaxLength=0   MaxDegrees=0
   Frame=71183   AutoMesh=Yes   AtJoints=Yes   AtFrames=No   NumSegments=0   MaxLength=0   MaxDegrees=0
   Frame=71184   AutoMesh=Yes   AtJoints=Yes   AtFrames=No   NumSegments=0   MaxLength=0   MaxDegrees=0
   Frame=71185   AutoMesh=Yes   AtJoints=Yes   AtFrames=No   NumSegments=0   MaxLength=0   MaxDegrees=0
   Frame=71186   AutoMesh=Yes   AtJoints=Yes   AtFrames=No   NumSegments=0   MaxLength=0   MaxDegrees=0
   Frame=71187   AutoMesh=Yes   AtJoints=Yes   AtFrames=No   NumSegments=0   MaxLength=0   MaxDegrees=0
   Frame=71188   AutoMesh=Yes   AtJoints=Yes   AtFrames=No   NumSegments=0   MaxLength=0   MaxDegrees=0
   Frame=71189   AutoMesh=Yes   AtJoints=Yes   AtFrames=No   NumSegments=0   MaxLength=0   MaxDegrees=0
   Frame=71190   AutoMesh=Yes   AtJoints=Yes   AtFrames=No   NumSegments=0   MaxLength=0   MaxDegrees=0
   Frame=71191   AutoMesh=Yes   AtJoints=Yes   AtFrames=No   NumSegments=0   MaxLength=0   MaxDegrees=0
   Frame=71192   AutoMesh=Yes   AtJoints=Yes   AtFrames=No   NumSegments=0   MaxLength=0   MaxDegrees=0
   Frame=71193   AutoMesh=Yes   AtJoints=Yes   AtFrames=No   NumSegments=0   MaxLength=0   MaxDegrees=0
   Frame=71194   AutoMesh=Yes   AtJoints=Yes   AtFrames=No   NumSegments=0   MaxLength=0   MaxDegrees=0
# ... 116 like lines cut
 
TABLE:  "FRAME DESIGN PROCEDURES"
   Frame=71175   DesignProc="From Material"
   Frame=71176   DesignProc="From Material"
   Frame=71177   DesignProc="From Material"
   Frame=71178   DesignProc="From Material"
   Frame=71179   DesignProc="From Material"
   Frame=71180   DesignProc="From Material"
   Frame=71181   DesignProc="From Material"
   Frame=71182   DesignProc="From Material"
   Frame=71183   DesignProc="From Material"
   Frame=71184   DesignProc="From Material"
   Frame=71185   DesignProc="From Material"
   Frame=71186   DesignProc="From Material"
   Frame=71187   DesignProc="From Material"
   Frame=71188   DesignProc="From Material"
   Frame=71189   DesignProc="From Material"
   Frame=71190   DesignProc="From Material"
   Frame=71191   DesignProc="From Material"
   Frame=71192   DesignProc="From Material"
   Frame=71193   DesignProc="From Material"
   Frame=71194   DesignProc="From Material"
# ... 48 like lines cut
   Frame=71243   DesignProc="No Design"
   Frame=71244   DesignProc="No Design"
   Frame=71245   DesignProc="From Material"
   Frame=71246   DesignProc="No Design"
   Frame=71247   DesignProc="No Design"
   Frame=71248   DesignProc="From Material"
   Frame=71249   DesignProc="No Design"
   Frame=71250   DesignProc="No Design"
   Frame=71251   DesignProc="From Material"
   Frame=71252   DesignProc="No Design"
   Frame=71253   DesignProc="No Design"
   Frame=71254   DesignProc="From Material"
   Frame=71255   DesignProc="No Design"
   Frame=71256   DesignProc="No Design"
   Frame=71257   DesignProc="From Material"
   Frame=71258   DesignProc="No Design"
   Frame=71259   DesignProc="No Design"
   Frame=71260   DesignProc="From Material"
   Frame=71261   DesignProc="No Design"
   Frame=71262   DesignProc="No Design"
   Frame=71263   DesignProc="No Design"
   Frame=71264   DesignProc="No Design"
   Frame=71265   DesignProc="No Design"
   Frame=71266   DesignProc="No Design"
   Frame=71267   DesignProc="No Design"
   Frame=71268   DesignProc="No Design"
   Frame=71269   DesignProc="No Design"
   Frame=71270   DesignProc="No Design"
   Frame=71271   DesignProc="No Design"
   Frame=71272   DesignProc="No Design"
   Frame=71273   DesignProc="No Design"
   Frame=71274   DesignProc="No Design"
   Frame=71275   DesignProc="No Design"
   Frame=71276   DesignProc="No Design"
   Frame=71277   DesignProc="No Design"
   Frame=71278   DesignProc="No Design"
   Frame=71279   DesignProc="No Design"
   Frame=71280   DesignProc="No Design"
# ... 24 like lines cut
   Frame=71305   DesignProc="From Material"
   Frame=71306   DesignProc="From Material"
   Frame=71307   DesignProc="From Material"
   Frame=71308   DesignProc="From Material"
   Frame=71309   DesignProc="From Material"
   Frame=71310   DesignProc="From Material"
 
TABLE:  "FRAME LOAD TRANSFER OPTIONS"
   Frame=71175   Transfer=Yes
   Frame=71176   Transfer=Yes
   Frame=71177   Transfer=Yes
   Frame=71178   Transfer=Yes
   Frame=71179   Transfer=Yes
   Frame=71180   Transfer=Yes
   Frame=71181   Transfer=Yes
   Frame=71182   Transfer=Yes
   Frame=71183   Transfer=Yes
   Frame=71184   Transfer=Yes
   Frame=71185   Transfer=Yes
   Frame=71186   Transfer=Yes
   Frame=71187   Transfer=Yes
   Frame=71188   Transfer=Yes
   Frame=71189   Transfer=Yes
   Frame=71190   Transfer=Yes
   Frame=71191   Transfer=Yes
   Frame=71192   Transfer=Yes
   Frame=71193   Transfer=Yes
   Frame=71194   Transfer=Yes
# ... 116 like lines cut
 
TABLE:  "FRAME LOCAL AXES ASSIGNMENTS 1 - TYPICAL"
   Frame=71242   Angle=90
   Frame=71245   Angle=90
   Frame=71248   Angle=90
   Frame=71251   Angle=90
   Frame=71254   Angle=90
   Frame=71257   Angle=90
   Frame=71260   Angle=90
 
TABLE:  "FRAME OUTPUT STATION ASSIGNMENTS"
   Frame=71175   StationType=MaxStaSpcg   MaxStaSpcg=0.5   AddAtElmInt=Yes   AddAtPtLoad=Yes
   Frame=71176   StationType=MaxStaSpcg   MaxStaSpcg=0.5   AddAtElmInt=Yes   AddAtPtLoad=Yes
   Frame=71177   StationType=MaxStaSpcg   MaxStaSpcg=0.5   AddAtElmInt=Yes   AddAtPtLoad=Yes
   Frame=71178   StationType=MaxStaSpcg   MaxStaSpcg=0.5   AddAtElmInt=Yes   AddAtPtLoad=Yes
   Frame=71179   StationType=MaxStaSpcg   MaxStaSpcg=0.5   AddAtElmInt=Yes   AddAtPtLoad=Yes
   Frame=71180   StationType=MaxStaSpcg   MaxStaSpcg=0.5   AddAtElmInt=Yes   AddAtPtLoad=Yes
   Frame=71181   StationType=MaxStaSpcg   MaxStaSpcg=0.5   AddAtElmInt=Yes   AddAtPtLoad=Yes
   Frame=71182   StationType=MaxStaSpcg   MaxStaSpcg=0.5   AddAtElmInt=Yes   AddAtPtLoad=Yes
   Frame=71183   StationType=MaxStaSpcg   MaxStaSpcg=0.5   AddAtElmInt=Yes   AddAtPtLoad=Yes
   Frame=71184   StationType=MaxStaSpcg   MaxStaSpcg=0.5   AddAtElmInt=Yes   AddAtPtLoad=Yes
   Frame=71185   StationType=MaxStaSpcg   MaxStaSpcg=0.5   AddAtElmInt=Yes   AddAtPtLoad=Yes
   Frame=71186   StationType=MaxStaSpcg   MaxStaSpcg=0.5   AddAtElmInt=Yes   AddAtPtLoad=Yes
   Frame=71187   StationType=MaxStaSpcg   MaxStaSpcg=0.5   AddAtElmInt=Yes   AddAtPtLoad=Yes
   Frame=71188   StationType=MaxStaSpcg   MaxStaSpcg=0.5   AddAtElmInt=Yes   AddAtPtLoad=Yes
   Frame=71189   StationType=MaxStaSpcg   MaxStaSpcg=0.5   AddAtElmInt=Yes   AddAtPtLoad=Yes
   Frame=71190   StationType=MaxStaSpcg   MaxStaSpcg=0.5   AddAtElmInt=Yes   AddAtPtLoad=Yes
   Frame=71191   StationType=MaxStaSpcg   MaxStaSpcg=0.5   AddAtElmInt=Yes   AddAtPtLoad=Yes
   Frame=71192   StationType=MaxStaSpcg   MaxStaSpcg=0.5   AddAtElmInt=Yes   AddAtPtLoad=Yes
   Frame=71193   StationType=MaxStaSpcg   MaxStaSpcg=0.5   AddAtElmInt=Yes   AddAtPtLoad=Yes
   Frame=71194   StationType=MaxStaSpcg   MaxStaSpcg=0.5   AddAtElmInt=Yes   AddAtPtLoad=Yes
# ... 47 like lines cut
   Frame=71242   StationType=MinNumSta   MinNumSta=3   AddAtElmInt=Yes   AddAtPtLoad=Yes
   Frame=71243   StationType=MinNumSta   MinNumSta=3   AddAtElmInt=Yes   AddAtPtLoad=Yes
   Frame=71244   StationType=MinNumSta   MinNumSta=3   AddAtElmInt=Yes   AddAtPtLoad=Yes
   Frame=71245   StationType=MinNumSta   MinNumSta=3   AddAtElmInt=Yes   AddAtPtLoad=Yes
   Frame=71246   StationType=MinNumSta   MinNumSta=3   AddAtElmInt=Yes   AddAtPtLoad=Yes
   Frame=71247   StationType=MinNumSta   MinNumSta=3   AddAtElmInt=Yes   AddAtPtLoad=Yes
   Frame=71248   StationType=MinNumSta   MinNumSta=3   AddAtElmInt=Yes   AddAtPtLoad=Yes
   Frame=71249   StationType=MinNumSta   MinNumSta=3   AddAtElmInt=Yes   AddAtPtLoad=Yes
   Frame=71250   StationType=MinNumSta   MinNumSta=3   AddAtElmInt=Yes   AddAtPtLoad=Yes
   Frame=71251   StationType=MinNumSta   MinNumSta=3   AddAtElmInt=Yes   AddAtPtLoad=Yes
   Frame=71252   StationType=MinNumSta   MinNumSta=3   AddAtElmInt=Yes   AddAtPtLoad=Yes
   Frame=71253   StationType=MinNumSta   MinNumSta=3   AddAtElmInt=Yes   AddAtPtLoad=Yes
   Frame=71254   StationType=MinNumSta   MinNumSta=3   AddAtElmInt=Yes   AddAtPtLoad=Yes
   Frame=71255   StationType=MinNumSta   MinNumSta=3   AddAtElmInt=Yes   AddAtPtLoad=Yes
   Frame=71256   StationType=MinNumSta   MinNumSta=3   AddAtElmInt=Yes   AddAtPtLoad=Yes
   Frame=71257   StationType=MinNumSta   MinNumSta=3   AddAtElmInt=Yes   AddAtPtLoad=Yes
   Frame=71258   StationType=MinNumSta   MinNumSta=3   AddAtElmInt=Yes   AddAtPtLoad=Yes
   Frame=71259   StationType=MinNumSta   MinNumSta=3   AddAtElmInt=Yes   AddAtPtLoad=Yes
   Frame=71260   StationType=MinNumSta   MinNumSta=3   AddAtElmInt=Yes   AddAtPtLoad=Yes
   Frame=71261   StationType=MinNumSta   MinNumSta=3   AddAtElmInt=Yes   AddAtPtLoad=Yes
# ... 43 like lines cut
   Frame=71305   StationType=MaxStaSpcg   MaxStaSpcg=0.5   AddAtElmInt=Yes   AddAtPtLoad=Yes
   Frame=71306   StationType=MaxStaSpcg   MaxStaSpcg=0.5   AddAtElmInt=Yes   AddAtPtLoad=Yes
   Frame=71307   StationType=MaxStaSpcg   MaxStaSpcg=0.5   AddAtElmInt=Yes   AddAtPtLoad=Yes
   Frame=71308   StationType=MaxStaSpcg   MaxStaSpcg=0.5   AddAtElmInt=Yes   AddAtPtLoad=Yes
   Frame=71309   StationType=MaxStaSpcg   MaxStaSpcg=0.5   AddAtElmInt=Yes   AddAtPtLoad=Yes
   Frame=71310   StationType=MaxStaSpcg   MaxStaSpcg=0.5   AddAtElmInt=Yes   AddAtPtLoad=Yes
 
TABLE:  "FRAME SECTION ASSIGNMENTS"
   Frame=71175   AutoSelect=N.A.   AnalSect=TB   MatProp=Default
   Frame=71176   AutoSelect=N.A.   AnalSect=TB   MatProp=Default
   Frame=71177   AutoSelect=N.A.   AnalSect=TB   MatProp=Default
   Frame=71178   AutoSelect=N.A.   AnalSect=TB   MatProp=Default
   Frame=71179   AutoSelect=N.A.   AnalSect=TB   MatProp=Default
   Frame=71180   AutoSelect=N.A.   AnalSect=TB   MatProp=Default
   Frame=71181   AutoSelect=N.A.   AnalSect=TB   MatProp=Default
   Frame=71182   AutoSelect=N.A.   AnalSect=TB   MatProp=Default
   Frame=71183   AutoSelect=N.A.   AnalSect=TB   MatProp=Default
   Frame=71184   AutoSelect=N.A.   AnalSect=TB   MatProp=Default
   Frame=71185   AutoSelect=N.A.   AnalSect=TB   MatProp=Default
   Frame=71186   AutoSelect=N.A.   AnalSect=TB   MatProp=Default
   Frame=71187   AutoSelect=N.A.   AnalSect=TB   MatProp=Default
   Frame=71188   AutoSelect=N.A.   AnalSect=TB   MatProp=Default
   Frame=71189   AutoSelect=N.A.   AnalSect=TB   MatProp=Default
   Frame=71190   AutoSelect=N.A.   AnalSect=TB   MatProp=Default
   Frame=71191   AutoSelect=N.A.   AnalSect=TB   MatProp=Default
   Frame=71192   AutoSelect=N.A.   AnalSect=TB   MatProp=Default
   Frame=71193   AutoSelect=N.A.   AnalSect=TB   MatProp=Default
   Frame=71194   AutoSelect=N.A.   AnalSect=TB   MatProp=Default
# ... 15 like lines cut
   Frame=71210   AutoSelect=N.A.   AnalSect=LB   MatProp=Default
   Frame=71211   AutoSelect=N.A.   AnalSect=LB   MatProp=Default
   Frame=71212   AutoSelect=N.A.   AnalSect=LB   MatProp=Default
   Frame=71213   AutoSelect=N.A.   AnalSect=LB   MatProp=Default
   Frame=71214   AutoSelect=N.A.   AnalSect=LB   MatProp=Default
   Frame=71215   AutoSelect=N.A.   AnalSect=LB   MatProp=Default
   Frame=71216   AutoSelect=N.A.   AnalSect=LB   MatProp=Default
   Frame=71217   AutoSelect=N.A.   AnalSect=LB   MatProp=Default
   Frame=71218   AutoSelect=N.A.   AnalSect=LB   MatProp=Default
   Frame=71219   AutoSelect=N.A.   AnalSect=LB   MatProp=Default
   Frame=71220   AutoSelect=N.A.   AnalSect=LB   MatProp=Default
   Frame=71221   AutoSelect=N.A.   AnalSect=LB   MatProp=Default
   Frame=71222   AutoSelect=N.A.   AnalSect=LB   MatProp=Default
   Frame=71223   AutoSelect=N.A.   AnalSect=LB   MatProp=Default
   Frame=71224   AutoSelect=N.A.   AnalSect=LB   MatProp=Default
   Frame=71225   AutoSelect=N.A.   AnalSect=LB   MatProp=Default
   Frame=71226   AutoSelect=N.A.   AnalSect=LB   MatProp=Default
   Frame=71227   AutoSelect=N.A.   AnalSect=LB   MatProp=Default
   Frame=71228   AutoSelect=N.A.   AnalSect=LB   MatProp=Default
   Frame=71229   AutoSelect=N.A.   AnalSect=LB   MatProp=Default
# ... 12 like lines cut
   Frame=71242   AutoSelect=N.A.   AnalSect=EB   MatProp=Default
   Frame=71243   AutoSelect=N.A.   AnalSect=Piles   MatProp=Default
   Frame=71244   AutoSelect=N.A.   AnalSect=Piles   MatProp=Default
   Frame=71245   AutoSelect=N.A.   AnalSect=EB   MatProp=Default
   Frame=71246   AutoSelect=N.A.   AnalSect=Piles   MatProp=Default
   Frame=71247   AutoSelect=N.A.   AnalSect=Piles   MatProp=Default
   Frame=71248   AutoSelect=N.A.   AnalSect=EB   MatProp=Default
   Frame=71249   AutoSelect=N.A.   AnalSect=Piles   MatProp=Default
   Frame=71250   AutoSelect=N.A.   AnalSect=Piles   MatProp=Default
   Frame=71251   AutoSelect=N.A.   AnalSect=EB   MatProp=Default
   Frame=71252   AutoSelect=N.A.   AnalSect=Piles   MatProp=Default
   Frame=71253   AutoSelect=N.A.   AnalSect=Piles   MatProp=Default
   Frame=71254   AutoSelect=N.A.   AnalSect=EB   MatProp=Default
   Frame=71255   AutoSelect=N.A.   AnalSect=Piles   MatProp=Default
   Frame=71256   AutoSelect=N.A.   AnalSect=Piles   MatProp=Default
   Frame=71257   AutoSelect=N.A.   AnalSect=EB   MatProp=Default
   Frame=71258   AutoSelect=N.A.   AnalSect=Piles   MatProp=Default
   Frame=71259   AutoSelect=N.A.   AnalSect=Piles   MatProp=Default
   Frame=71260   AutoSelect=N.A.   AnalSect=EB   MatProp=Default
   Frame=71261   AutoSelect=N.A.   AnalSect=Piles   MatProp=Default
   Frame=71262   AutoSelect=N.A.   AnalSect=Piles   MatProp=Default
   Frame=71263   AutoSelect=N.A.   AnalSect=Piles   MatProp=Default
   Frame=71264   AutoSelect=N.A.   AnalSect=Piles   MatProp=Default
   Frame=71265   AutoSelect=N.A.   AnalSect=Piles   MatProp=Default
   Frame=71266   AutoSelect=N.A.   AnalSect=Piles   MatProp=Default
   Frame=71267   AutoSelect=N.A.   AnalSect=Piles   MatProp=Default
   Frame=71268   AutoSelect=N.A.   AnalSect=Piles   MatProp=Default
   Frame=71269   AutoSelect=N.A.   AnalSect=Piles   MatProp=Default
   Frame=71270   AutoSelect=N.A.   AnalSect=Piles   MatProp=Default
   Frame=71271   AutoSelect=N.A.   AnalSect=Piles   MatProp=Default
   Frame=71272   AutoSelect=N.A.   AnalSect=Piles   MatProp=Default
   Frame=71273   AutoSelect=N.A.   AnalSect=Piles   MatProp=Default
   Frame=71274   AutoSelect=N.A.   AnalSect=Piles   MatProp=Default
   Frame=71275   AutoSelect=N.A.   AnalSect=Piles   MatProp=Default
   Frame=71276   AutoSelect=N.A.   AnalSect=Piles   MatProp=Default
   Frame=71277   AutoSelect=N.A.   AnalSect=Piles   MatProp=Default
   Frame=71278   AutoSelect=N.A.   AnalSect=Piles   MatProp=Default
   Frame=71279   AutoSelect=N.A.   AnalSect=Piles   MatProp=Default
   Frame=71280   AutoSelect=N.A.   AnalSect=Piles   MatProp=Default
# ... 24 like lines cut
   Frame=71305   AutoSelect=N.A.   AnalSect=EB-1   MatProp=Default
   Frame=71306   AutoSelect=N.A.   AnalSect=EB-1   MatProp=Default
   Frame=71307   AutoSelect=N.A.   AnalSect=EB-1   MatProp=Default
   Frame=71308   AutoSelect=N.A.   AnalSect=EB-1   MatProp=Default
   Frame=71309   AutoSelect=N.A.   AnalSect=EB-1   MatProp=Default
   Frame=71310   AutoSelect=N.A.   AnalSect=EB-1   MatProp=Default
 
TABLE:  "FRAME SECTION PROPERTIES 01 - GENERAL"
   SectionName=EB   Material=BTCT   Shape=Rectangular   t3=1.2   t2=0.5   Area=0.6   TorsConst=0.0369079665195795   I33=0.072   I22=0.0125   I23=0   AS2=0.5   AS3=0.5   S33Top=0.12   S33Bot=0.12   S22Left=0.05   S22Right=0.05   Z33=0.18 _
        Z22=0.075   R33=0.346410161513775   R22=0.144337567297406   CGOffset3=0   CGOffset2=0   EccV2=0   EccV3=0   Cw=0   Color=Yellow   FromFile=No   AMod=1   A2Mod=1   A3Mod=1   JMod=1   I2Mod=1   I3Mod=1   MMod=1   WMod=1
   SectionName=EB-1   Material=BTCT   Shape=Rectangular   t3=0.5   t2=0.5   Area=0.25   TorsConst=0.00880208333333333   I33=0.00520833333333333   I22=0.00520833333333333   I23=0   AS2=0.208333333333333   AS3=0.208333333333333 _
        S33Top=0.0208333333333333   S33Bot=0.0208333333333333   S22Left=0.0208333333333333   S22Right=0.0208333333333333   Z33=0.03125   Z22=0.03125   R33=0.144337567297406   R22=0.144337567297406   CGOffset3=0   CGOffset2=0   EccV2=0 _
        EccV3=0   Cw=0   Color=Gray8Dark   FromFile=No   AMod=1   A2Mod=1   A3Mod=1   JMod=1   I2Mod=1   I3Mod=1   MMod=1   WMod=1
   SectionName=LB   Material=BTCT   Shape=Rectangular   t3=0.5   t2=0.5   Area=0.25   TorsConst=0.00880208333333333   I33=0.00520833333333333   I22=0.00520833333333333   I23=0   AS2=0.208333333333333   AS3=0.208333333333333 _
        S33Top=0.0208333333333333   S33Bot=0.0208333333333333   S22Left=0.0208333333333333   S22Right=0.0208333333333333   Z33=0.03125   Z22=0.03125   R33=0.144337567297406   R22=0.144337567297406   CGOffset3=0   CGOffset2=0   EccV2=0 _
        EccV3=0   Cw=0   Color=Magenta   FromFile=No   AMod=1   A2Mod=1   A3Mod=1   JMod=1   I2Mod=1   I3Mod=1   MMod=1   WMod=1
   SectionName=Piles   Material=BTCTCOC   Shape=Pipe   t3=0.3   tw=0.06   Area=0.045238934211693   TorsConst=0.000692155693438903   I33=0.000346077846719452   I22=0.000346077846719452   I23=0   AS2=0.0235427106611872 _
        AS3=0.0235427106611872   S33Top=0.00230718564479634   S33Bot=0.00230718564479634   S22Left=0.00230718564479634   S22Right=0.00230718564479634   Z33=0.003528   Z22=0.003528   R33=0.0874642784226795   R22=0.0874642784226795 _
        CGOffset3=0   CGOffset2=0   EccV2=0   EccV3=0   Cw=0   Color=Blue   FromFile=No   AMod=1   A2Mod=1   A3Mod=1   JMod=1   I2Mod=1   I3Mod=1   MMod=1   WMod=1
   SectionName=TB   Material=BTCT   Shape=Rectangular   t3=0.5   t2=0.5   Area=0.25   TorsConst=0.00880208333333333   I33=0.00520833333333333   I22=0.00520833333333333   I23=0   AS2=0.208333333333333   AS3=0.208333333333333 _
        S33Top=0.0208333333333333   S33Bot=0.0208333333333333   S22Left=0.0208333333333333   S22Right=0.0208333333333333   Z33=0.03125   Z22=0.03125   R33=0.144337567297406   R22=0.144337567297406   CGOffset3=0   CGOffset2=0   EccV2=0 _
        EccV3=0   Cw=0   Color=Red   FromFile=No   AMod=1   A2Mod=1   A3Mod=1   JMod=1   I2Mod=1   I3Mod=1   MMod=1   WMod=1
 
TABLE:  "FRAME SECTION PROPERTIES 02 - CONCRETE COLUMN"
   SectionName=EB   RebarMatL=A706   RebarMatC=A706   ReinfConfig=Rectangular   LatReinf=Ties   Cover=0.05   NumBars3Dir=2   NumBars2Dir=2   BarSizeL=12d   BarSizeC=10d   SpacingC=0.1   NumCBars2=2   NumCBars3=2   ReinfType=Design
   SectionName=EB-1   RebarMatL=A706   RebarMatC=A706   ReinfConfig=Rectangular   LatReinf=Ties   Cover=0.05   NumBars3Dir=2   NumBars2Dir=2   BarSizeL=12d   BarSizeC=10d   SpacingC=0.1   NumCBars2=2   NumCBars3=2   ReinfType=Design
   SectionName=LB   RebarMatL=A706   RebarMatC=A706   ReinfConfig=Rectangular   LatReinf=Ties   Cover=0.05   NumBars3Dir=2   NumBars2Dir=2   BarSizeL=12d   BarSizeC=10d   SpacingC=0.1   NumCBars2=2   NumCBars3=2   ReinfType=Design
   SectionName=TB   RebarMatL=A706   RebarMatC=A706   ReinfConfig=Rectangular   LatReinf=Ties   Cover=0.05   NumBars3Dir=2   NumBars2Dir=2   BarSizeL=12d   BarSizeC=10d   SpacingC=0.1   NumCBars2=2   NumCBars3=2   ReinfType=Design
 
TABLE:  "FRAME SECTION PROPERTIES 13 - TIME DEPENDENT"
   SectionName=EB   TypeSize=Auto   AutoSFSize=1
   SectionName=EB-1   TypeSize=Auto   AutoSFSize=1
   SectionName=LB   TypeSize=Auto   AutoSFSize=1
   SectionName=Piles   TypeSize=Auto   AutoSFSize=1
   SectionName=TB   TypeSize=Auto   AutoSFSize=1
 
TABLE:  "FUNCTION - PLOT FUNCTIONS"
   PlotFunc="Input Energy"   Type=Energy   Component=Input   Mode=All
 
TABLE:  "FUNCTION - POWER SPECTRAL DENSITY - USER"
   Name=UNIFPSD   Frequency=0   Value=1
   Name=UNIFPSD   Frequency=1   Value=1
 
TABLE:  "FUNCTION - RESPONSE SPECTRUM - USER"
   Name=UNIFRS   Period=0   Accel=1   FuncDamp=0.05
   Name=UNIFRS   Period=1   Accel=1
 
TABLE:  "FUNCTION - STEADY STATE - USER"
   Name=UNIFSS   Frequency=0   Value=1
   Name=UNIFSS   Frequency=1   Value=1
 
TABLE:  "FUNCTION - TIME HISTORY - USER"
   Name=RAMPTH   Time=0   Value=0
   Name=RAMPTH   Time=1   Value=1
   Name=RAMPTH   Time=4   Value=1
   Name=UNIFTH   Time=0   Value=1
   Name=UNIFTH   Time=1   Value=1
 
TABLE:  "GRID LINES"
   CoordSys=GLOBAL   AxisDir=X   GridID=A   XRYZCoord=-10   LineType=Primary   LineColor=Gray8Dark   Visible=Yes   BubbleLoc=End   AllVisible=Yes   BubbleSize=0.9375
   CoordSys=GLOBAL   AxisDir=X   GridID=B   XRYZCoord=-9   LineType=Primary   LineColor=Gray8Dark   Visible=Yes   BubbleLoc=End
   CoordSys=GLOBAL   AxisDir=X   GridID=C   XRYZCoord=-4.5   LineType=Primary   LineColor=Gray8Dark   Visible=Yes   BubbleLoc=End
   CoordSys=GLOBAL   AxisDir=X   GridID=D   XRYZCoord=0   LineType=Primary   LineColor=Gray8Dark   Visible=Yes   BubbleLoc=End
   CoordSys=GLOBAL   AxisDir=X   GridID=E   XRYZCoord=4.5   LineType=Primary   LineColor=Gray8Dark   Visible=Yes   BubbleLoc=End
   CoordSys=GLOBAL   AxisDir=X   GridID=F   XRYZCoord=9   LineType=Primary   LineColor=Gray8Dark   Visible=Yes   BubbleLoc=End
   CoordSys=GLOBAL   AxisDir=X   GridID=G   XRYZCoord=10   LineType=Primary   LineColor=Gray8Dark   Visible=Yes   BubbleLoc=End
   CoordSys=GLOBAL   AxisDir=Y   GridID=1   XRYZCoord=-5.2   LineType=Primary   LineColor=Gray8Dark   Visible=Yes   BubbleLoc=Start
   CoordSys=GLOBAL   AxisDir=Y   GridID=2   XRYZCoord=-4.2   LineType=Primary   LineColor=Gray8Dark   Visible=Yes   BubbleLoc=Start
   CoordSys=GLOBAL   AxisDir=Y   GridID=3   XRYZCoord=0   LineType=Primary   LineColor=Gray8Dark   Visible=Yes   BubbleLoc=Start
   CoordSys=GLOBAL   AxisDir=Y   GridID=4   XRYZCoord=4.2   LineType=Primary   LineColor=Gray8Dark   Visible=Yes   BubbleLoc=Start
   CoordSys=GLOBAL   AxisDir=Y   GridID=5   XRYZCoord=4.8   LineType=Primary   LineColor=Gray8Dark   Visible=Yes   BubbleLoc=Start
   CoordSys=GLOBAL   AxisDir=Z   GridID=Z1   XRYZCoord=0   LineType=Primary   LineColor=Gray8Dark   Visible=Yes   BubbleLoc=End
   CoordSys=GLOBAL   AxisDir=Z   GridID=Z2   XRYZCoord=13   LineType=Primary   LineColor=Gray8Dark   Visible=Yes   BubbleLoc=End
 
TABLE:  "GROUPS 1 - DEFINITIONS"
   GroupName=ALL   Selection=Yes   SectionCut=Yes   Steel=Yes   Concrete=Yes   Aluminum=Yes   ColdFormed=Yes   Stage=Yes   Bridge=Yes   AutoSeismic=No   AutoWind=No   SelDesSteel=No   SelDesAlum=No   SelDesCold=No   MassWeight=Yes   Color=Red
   GroupName=Pile   Selection=Yes   SectionCut=Yes   Steel=Yes   Concrete=Yes   Aluminum=Yes   ColdFormed=Yes   Stage=Yes   Bridge=Yes   AutoSeismic=No   AutoWind=No   SelDesSteel=No   SelDesAlum=No   SelDesCold=No   MassWeight=Yes   Color=Gray8Dark
   GroupName=DN   Selection=Yes   SectionCut=Yes   Steel=Yes   Concrete=Yes   Aluminum=Yes   ColdFormed=Yes   Stage=Yes   Bridge=Yes   AutoSeismic=No   AutoWind=No   SelDesSteel=No   SelDesAlum=No   SelDesCold=No   MassWeight=Yes   Color=Yellow
   GroupName=Pile_Toe   Selection=Yes   SectionCut=Yes   Steel=Yes   Concrete=Yes   Aluminum=Yes   ColdFormed=Yes   Stage=Yes   Bridge=Yes   AutoSeismic=No   AutoWind=No   SelDesSteel=No   SelDesAlum=No   SelDesCold=No   MassWeight=Yes   Color=Green
   GroupName=Pile_Bend   Selection=Yes   SectionCut=Yes   Steel=Yes   Concrete=Yes   Aluminum=Yes   ColdFormed=Yes   Stage=Yes   Bridge=Yes   AutoSeismic=No   AutoWind=No   SelDesSteel=No   SelDesAlum=No   SelDesCold=No   MassWeight=Yes   Color=Cyan
   GroupName=Beam   Selection=Yes   SectionCut=Yes   Steel=Yes   Concrete=Yes   Aluminum=Yes   ColdFormed=Yes   Stage=Yes   Bridge=Yes   AutoSeismic=No   AutoWind=No   SelDesSteel=No   SelDesAlum=No   SelDesCold=No   MassWeight=Yes   Color=Blue
   GroupName=Piles   Selection=Yes   SectionCut=Yes   Steel=Yes   Concrete=Yes   Aluminum=Yes   ColdFormed=Yes   Stage=Yes   Bridge=Yes   AutoSeismic=No   AutoWind=No   SelDesSteel=No   SelDesAlum=No   SelDesCold=No   MassWeight=Yes   Color=Green
   GroupName=Beams   Selection=Yes   SectionCut=Yes   Steel=Yes   Concrete=Yes   Aluminum=Yes   ColdFormed=Yes   Stage=Yes   Bridge=Yes   AutoSeismic=No   AutoWind=No   SelDesSteel=No   SelDesAlum=No   SelDesCold=No   MassWeight=Yes   Color=Cyan
 
TABLE:  "GROUPS 2 - ASSIGNMENTS"
 
TABLE:  "JOINT COORDINATES"
   Joint=64379   CoordSys=GLOBAL   CoordType=Cartesian   XorR=-9   Y=-5   Z=0   SpecialJt=No   GUID=41c3e95c-7ce7-44fa-8c68-5439b201a4fe
   Joint=64380   CoordSys=GLOBAL   CoordType=Cartesian   XorR=-9   Y=-4.5   Z=0   SpecialJt=No   GUID=15218440-d2aa-4237-8a82-c589caec9562
   Joint=64381   CoordSys=GLOBAL   CoordType=Cartesian   XorR=-6   Y=-5   Z=0   SpecialJt=No   GUID=49891e46-2a51-488c-93df-3ec02a6ad838
   Joint=64382   CoordSys=GLOBAL   CoordType=Cartesian   XorR=-6   Y=-4.5   Z=0   SpecialJt=No   GUID=c108a817-2241-43da-8241-02c2ed77255e
   Joint=64383   CoordSys=GLOBAL   CoordType=Cartesian   XorR=-3   Y=-5   Z=0   SpecialJt=No   GUID=d669dc36-9722-4ad4-aeb8-27e94c40515c
   Joint=64384   CoordSys=GLOBAL   CoordType=Cartesian   XorR=-3   Y=-4.5   Z=0   SpecialJt=No   GUID=30477358-54d6-48b2-a701-d0e35a45a6ab
   Joint=64385   CoordSys=GLOBAL   CoordType=Cartesian   XorR=0   Y=-5   Z=0   SpecialJt=No   GUID=09ed8dfc-14c5-4685-9bec-41dd315c7299
   Joint=64386   CoordSys=GLOBAL   CoordType=Cartesian   XorR=0   Y=-4.5   Z=0   SpecialJt=No   GUID=b5ce81b7-6dbd-4857-b590-192c1f2608cb
   Joint=64387   CoordSys=GLOBAL   CoordType=Cartesian   XorR=3   Y=-5   Z=0   SpecialJt=No   GUID=430098ca-b200-4631-b9cd-986c3b739568
   Joint=64388   CoordSys=GLOBAL   CoordType=Cartesian   XorR=3   Y=-4.5   Z=0   SpecialJt=No   GUID=3347a4bb-7c44-4e92-b886-7953f3c6adb9
   Joint=64389   CoordSys=GLOBAL   CoordType=Cartesian   XorR=6   Y=-5   Z=0   SpecialJt=No   GUID=d5f96f4e-f3fe-483b-97ba-2fc0dd3d347c
   Joint=64390   CoordSys=GLOBAL   CoordType=Cartesian   XorR=6   Y=-4.5   Z=0   SpecialJt=No   GUID=35196ce5-c160-4b63-9e43-301de4bbf903
   Joint=64391   CoordSys=GLOBAL   CoordType=Cartesian   XorR=9   Y=-5   Z=0   SpecialJt=No   GUID=3c5f5099-00dc-450c-8fa1-ca7135c39ace
   Joint=64392   CoordSys=GLOBAL   CoordType=Cartesian   XorR=9   Y=-4.5   Z=0   SpecialJt=No   GUID=457599d4-7057-4aeb-bfd3-b9cee5edc8e2
   Joint=64393   CoordSys=GLOBAL   CoordType=Cartesian   XorR=-9   Y=-1.5   Z=0   SpecialJt=No   GUID=8847a45f-9395-45a6-8d20-98db1b4a8408
   Joint=64394   CoordSys=GLOBAL   CoordType=Cartesian   XorR=-6   Y=-1.5   Z=0   SpecialJt=No   GUID=43cfee19-cbcc-47e3-a149-d07d052d6b7c
   Joint=64395   CoordSys=GLOBAL   CoordType=Cartesian   XorR=-3   Y=-1.5   Z=0   SpecialJt=No   GUID=7df878e8-df83-4707-b2f4-a48ee0fb7fb2
   Joint=64396   CoordSys=GLOBAL   CoordType=Cartesian   XorR=0   Y=-1.5   Z=0   SpecialJt=No   GUID=a057de49-354b-48ea-9c39-f7c74f337bda
   Joint=64397   CoordSys=GLOBAL   CoordType=Cartesian   XorR=3   Y=-1.5   Z=0   SpecialJt=No   GUID=2ec83529-0282-440c-b23e-bf306c7da910
   Joint=64398   CoordSys=GLOBAL   CoordType=Cartesian   XorR=6   Y=-1.5   Z=0   SpecialJt=No   GUID=d266c53e-acc2-42f9-9466-f295433b0e88
   Joint=64399   CoordSys=GLOBAL   CoordType=Cartesian   XorR=9   Y=-1.5   Z=0   SpecialJt=No   GUID=c7249f59-681e-4004-a59d-ed837c0f5f42
   Joint=64400   CoordSys=GLOBAL   CoordType=Cartesian   XorR=-9   Y=1.5   Z=0   SpecialJt=No   GUID=22093ad7-a13a-4e86-86b9-faf94234a965
   Joint=64401   CoordSys=GLOBAL   CoordType=Cartesian   XorR=-6   Y=1.5   Z=0   SpecialJt=No   GUID=cf4331d3-1832-415c-9401-255adb6142f6
   Joint=64402   CoordSys=GLOBAL   CoordType=Cartesian   XorR=-3   Y=1.5   Z=0   SpecialJt=No   GUID=c299ff5a-3893-4972-ae5d-5ac1bdbf009a
   Joint=64403   CoordSys=GLOBAL   CoordType=Cartesian   XorR=0   Y=1.5   Z=0   SpecialJt=No   GUID=fe100e45-0b83-412e-992e-c20d3d6b851b
   Joint=64404   CoordSys=GLOBAL   CoordType=Cartesian   XorR=3   Y=1.5   Z=0   SpecialJt=No   GUID=d04c1acd-ffd6-45d9-ba8a-d555c9e29b5f
   Joint=64405   CoordSys=GLOBAL   CoordType=Cartesian   XorR=6   Y=1.5   Z=0   SpecialJt=No   GUID=49ad053f-d19a-4cc6-9af6-1eafec2c89ad
   Joint=64406   CoordSys=GLOBAL   CoordType=Cartesian   XorR=9   Y=1.5   Z=0   SpecialJt=No   GUID=e2181d2a-53e9-45e6-88bb-cb6b413f4241
   Joint=64407   CoordSys=GLOBAL   CoordType=Cartesian   XorR=-9   Y=4.5   Z=0   SpecialJt=No   GUID=74ceea5a-fb97-4a68-a49a-35343df28bb6
   Joint=64408   CoordSys=GLOBAL   CoordType=Cartesian   XorR=-6   Y=4.5   Z=0   SpecialJt=No   GUID=a5f54778-8cb2-4c8d-997a-0ecf37e46c89
   Joint=64409   CoordSys=GLOBAL   CoordType=Cartesian   XorR=-3   Y=4.5   Z=0   SpecialJt=No   GUID=c7c13666-2500-4c3d-8e8b-1cf5a5d9ffdf
   Joint=64410   CoordSys=GLOBAL   CoordType=Cartesian   XorR=0   Y=4.5   Z=0   SpecialJt=No   GUID=63bdf30f-ea71-4363-b1b3-11bf89e5bf16
   Joint=64411   CoordSys=GLOBAL   CoordType=Cartesian   XorR=3   Y=4.5   Z=0   SpecialJt=No   GUID=870abbac-388a-4b32-9a58-e05ed617a61d
   Joint=64412   CoordSys=GLOBAL   CoordType=Cartesian   XorR=6   Y=4.5   Z=0   SpecialJt=No   GUID=e75deebe-6263-4c23-9c1e-3a4455488f3f
   Joint=64413   CoordSys=GLOBAL   CoordType=Cartesian   XorR=9   Y=4.5   Z=0   SpecialJt=No   GUID=59e27818-ceca-4efd-9d9e-f71bf74d19e0
   Joint=64414   CoordSys=GLOBAL   CoordType=Cartesian   XorR=-9   Y=5   Z=0   SpecialJt=No   GUID=a254f772-1e79-429d-b633-e205799e36c6
   Joint=64415   CoordSys=GLOBAL   CoordType=Cartesian   XorR=-6   Y=5   Z=0   SpecialJt=No   GUID=689de418-2b0f-4519-a039-8d5e27d61a18
   Joint=64416   CoordSys=GLOBAL   CoordType=Cartesian   XorR=-3   Y=5   Z=0   SpecialJt=No   GUID=bf196161-87bb-4d86-8ac5-57df502faa89
   Joint=64417   CoordSys=GLOBAL   CoordType=Cartesian   XorR=0   Y=5   Z=0   SpecialJt=No   GUID=2968dd05-53cc-405d-b0fb-31489edbef41
   Joint=64418   CoordSys=GLOBAL   CoordType=Cartesian   XorR=3   Y=5   Z=0   SpecialJt=No   GUID=ac2169c6-a039-49ec-acc6-7dcb5f4840d4
   Joint=64419   CoordSys=GLOBAL   CoordType=Cartesian   XorR=6   Y=5   Z=0   SpecialJt=No   GUID=f599f2e7-c997-47f5-b1d9-004313d71e34
   Joint=64420   CoordSys=GLOBAL   CoordType=Cartesian   XorR=9   Y=5   Z=0   SpecialJt=No   GUID=833a7f2e-3cda-4d26-bd85-59570a0f43bf
   Joint=64421   CoordSys=GLOBAL   CoordType=Cartesian   XorR=-10   Y=-4.5   Z=0   SpecialJt=No   GUID=2df5a6e1-6987-4089-9543-4551fa62bf42
   Joint=64422   CoordSys=GLOBAL   CoordType=Cartesian   XorR=-10   Y=-1.5   Z=0   SpecialJt=No   GUID=d080d39e-324b-437d-adf2-aec60553b403
   Joint=64423   CoordSys=GLOBAL   CoordType=Cartesian   XorR=-10   Y=1.5   Z=0   SpecialJt=No   GUID=a2080acf-a0b1-4ffa-9d31-b3dfc94e71fe
   Joint=64424   CoordSys=GLOBAL   CoordType=Cartesian   XorR=-10   Y=4.5   Z=0   SpecialJt=No   GUID=a66d0508-0350-4eaa-b3e8-7683b70a3f90
   Joint=64425   CoordSys=GLOBAL   CoordType=Cartesian   XorR=10   Y=-4.5   Z=0   SpecialJt=No   GUID=6f5beeb8-23f1-48f8-bc1c-cd98151b082a
   Joint=64426   CoordSys=GLOBAL   CoordType=Cartesian   XorR=10   Y=-1.5   Z=0   SpecialJt=No   GUID=b4976ac7-3c0e-48c0-9124-ec659fa316f3
   Joint=64427   CoordSys=GLOBAL   CoordType=Cartesian   XorR=10   Y=1.5   Z=0   SpecialJt=No   GUID=91ee39bc-114d-4827-b9fa-fb87cee9da3d
   Joint=64428   CoordSys=GLOBAL   CoordType=Cartesian   XorR=10   Y=4.5   Z=0   SpecialJt=No   GUID=b7fa48b1-f498-4f11-ba9e-7b099f45aa58
   Joint=64429   CoordSys=GLOBAL   CoordType=Cartesian   XorR=-9   Y=-4.5   Z=-3   SpecialJt=No   GUID=25bbf0ec-2bfe-48a9-947b-4f2e335d2671
   Joint=64430   CoordSys=GLOBAL   CoordType=Cartesian   XorR=-9   Y=-4.5   Z=-13.4180229476075   SpecialJt=No   GUID=21d08e7f-cfce-4668-a647-14a897a5d79b
   Joint=64431   CoordSys=GLOBAL   CoordType=Cartesian   XorR=-9   Y=-4.5   Z=-16   SpecialJt=No   GUID=9896b606-6ff7-4cfb-81d7-9e106ce2a16f
   Joint=64432   CoordSys=GLOBAL   CoordType=Cartesian   XorR=-6   Y=-4.5   Z=-3   SpecialJt=No   GUID=7daccb5c-4ace-454d-85cf-e7fa044acbe3
   Joint=64433   CoordSys=GLOBAL   CoordType=Cartesian   XorR=-6   Y=-4.5   Z=-13.4180229476075   SpecialJt=No   GUID=aef85de2-66d2-4f83-a8dc-b5fd86b45267
   Joint=64434   CoordSys=GLOBAL   CoordType=Cartesian   XorR=-6   Y=-4.5   Z=-16   SpecialJt=No   GUID=70c1def0-509b-4e88-8c7c-7028c7bba397
   Joint=64435   CoordSys=GLOBAL   CoordType=Cartesian   XorR=-3   Y=-4.5   Z=-3   SpecialJt=No   GUID=63dfdbf7-397b-4c15-b7b7-b489122c8d1c
   Joint=64436   CoordSys=GLOBAL   CoordType=Cartesian   XorR=-3   Y=-4.5   Z=-13.4180229476075   SpecialJt=No   GUID=463109ae-3832-42f6-bcbf-c377c05d2776
   Joint=64437   CoordSys=GLOBAL   CoordType=Cartesian   XorR=-3   Y=-4.5   Z=-16   SpecialJt=No   GUID=5dcb4a6c-2d84-46a6-857d-3fd98baaf90b
   Joint=64438   CoordSys=GLOBAL   CoordType=Cartesian   XorR=0   Y=-4.5   Z=-3   SpecialJt=No   GUID=c56e13e2-6443-48e3-9377-545ef8ac98d3
   Joint=64439   CoordSys=GLOBAL   CoordType=Cartesian   XorR=0   Y=-4.5   Z=-13.4180229476075   SpecialJt=No   GUID=7f3d7ddb-0eaa-4578-a6b5-cbd7d29e0617
   Joint=64440   CoordSys=GLOBAL   CoordType=Cartesian   XorR=0   Y=-4.5   Z=-16   SpecialJt=No   GUID=d0dce1f9-1ec2-4155-96f9-cbf2196925f5
   Joint=64441   CoordSys=GLOBAL   CoordType=Cartesian   XorR=3   Y=-4.5   Z=-3   SpecialJt=No   GUID=535058c0-8ac1-4b59-b6c1-d86562bf7b31
   Joint=64442   CoordSys=GLOBAL   CoordType=Cartesian   XorR=3   Y=-4.5   Z=-13.4180229476075   SpecialJt=No   GUID=936b5e98-96c8-45b4-bd03-35dabb9cd061
   Joint=64443   CoordSys=GLOBAL   CoordType=Cartesian   XorR=3   Y=-4.5   Z=-16   SpecialJt=No   GUID=3f311af7-eecd-4bce-82ce-467057275eaa
   Joint=64444   CoordSys=GLOBAL   CoordType=Cartesian   XorR=6   Y=-4.5   Z=-3   SpecialJt=No   GUID=9c53e520-910c-4401-b08b-8bf125c195b2
   Joint=64445   CoordSys=GLOBAL   CoordType=Cartesian   XorR=6   Y=-4.5   Z=-13.4180229476075   SpecialJt=No   GUID=545460a1-73f4-45b2-a617-489792a7905c
   Joint=64446   CoordSys=GLOBAL   CoordType=Cartesian   XorR=6   Y=-4.5   Z=-16   SpecialJt=No   GUID=392cbbd3-0142-4d52-a22d-ed70efb41afa
   Joint=64447   CoordSys=GLOBAL   CoordType=Cartesian   XorR=9   Y=-4.5   Z=-3   SpecialJt=No   GUID=39fe16df-db62-4472-93f6-88da6ef7f429
   Joint=64448   CoordSys=GLOBAL   CoordType=Cartesian   XorR=9   Y=-4.5   Z=-13.4180229476075   SpecialJt=No   GUID=9c074a1b-8e3b-4640-85c0-280b44f88a5e
   Joint=64449   CoordSys=GLOBAL   CoordType=Cartesian   XorR=9   Y=-4.5   Z=-16   SpecialJt=No   GUID=e82c8718-b884-4ab1-a5b4-6d4cfc41f055
   Joint=64450   CoordSys=GLOBAL   CoordType=Cartesian   XorR=-9   Y=-1.5   Z=-13.4180229476075   SpecialJt=No   GUID=300a39f0-7690-4c8d-98db-89445d3f1a78
   Joint=64451   CoordSys=GLOBAL   CoordType=Cartesian   XorR=-9   Y=-1.5   Z=-16   SpecialJt=No   GUID=a1263061-c12d-49f0-b7cf-7669b851a8ef
   Joint=64452   CoordSys=GLOBAL   CoordType=Cartesian   XorR=-6   Y=-1.5   Z=-13.4180229476075   SpecialJt=No   GUID=ceaa11f7-f43e-4588-9067-f919f2f00a0a
   Joint=64453   CoordSys=GLOBAL   CoordType=Cartesian   XorR=-6   Y=-1.5   Z=-16   SpecialJt=No   GUID=f45c7674-49b5-4179-9fd0-cc1294493b1c
   Joint=64454   CoordSys=GLOBAL   CoordType=Cartesian   XorR=-3   Y=-1.5   Z=-13.4180229476075   SpecialJt=No   GUID=325db34f-9803-407c-87e2-88f5305f598c
   Joint=64455   CoordSys=GLOBAL   CoordType=Cartesian   XorR=-3   Y=-1.5   Z=-16   SpecialJt=No   GUID=6009fe4d-c111-4fda-9072-10c1c4a5f819
   Joint=64456   CoordSys=GLOBAL   CoordType=Cartesian   XorR=0   Y=-1.5   Z=-13.4180229476075   SpecialJt=No   GUID=883742d6-2aeb-44d4-afba-9b333729851f
   Joint=64457   CoordSys=GLOBAL   CoordType=Cartesian   XorR=0   Y=-1.5   Z=-16   SpecialJt=No   GUID=99284042-0a3e-43fa-b39c-e87f95638b0e
   Joint=64458   CoordSys=GLOBAL   CoordType=Cartesian   XorR=3   Y=-1.5   Z=-13.4180229476075   SpecialJt=No   GUID=900b7bde-76ea-41d5-a0a2-b15ee9ff54ad
   Joint=64459   CoordSys=GLOBAL   CoordType=Cartesian   XorR=3   Y=-1.5   Z=-16   SpecialJt=No   GUID=aab4b39b-787c-481b-ba95-05d6351eee25
   Joint=64460   CoordSys=GLOBAL   CoordType=Cartesian   XorR=6   Y=-1.5   Z=-13.4180229476075   SpecialJt=No   GUID=2d8e5994-0d7e-4c5a-a5d9-ca6eb479143f
   Joint=64461   CoordSys=GLOBAL   CoordType=Cartesian   XorR=6   Y=-1.5   Z=-16   SpecialJt=No   GUID=f445a844-5b75-4476-ba68-29c2ecbdbf90
   Joint=64462   CoordSys=GLOBAL   CoordType=Cartesian   XorR=9   Y=-1.5   Z=-13.4180229476075   SpecialJt=No   GUID=05690adb-f4f9-423c-a7ae-03aa155ab438
   Joint=64463   CoordSys=GLOBAL   CoordType=Cartesian   XorR=9   Y=-1.5   Z=-16   SpecialJt=No   GUID=119251a4-6757-4969-8b05-fa4a1c0af4b7
   Joint=64464   CoordSys=GLOBAL   CoordType=Cartesian   XorR=-9   Y=1.5   Z=-13.4180229476075   SpecialJt=No   GUID=046e55bb-ca7b-4622-a34e-6ff6d6d2ed12
   Joint=64465   CoordSys=GLOBAL   CoordType=Cartesian   XorR=-9   Y=1.5   Z=-16   SpecialJt=No   GUID=c39e1326-0d92-43dd-a561-5d6fe7b023da
   Joint=64466   CoordSys=GLOBAL   CoordType=Cartesian   XorR=-6   Y=1.5   Z=-13.4180229476075   SpecialJt=No   GUID=3bf660cf-97cd-441e-b991-87085a612d79
   Joint=64467   CoordSys=GLOBAL   CoordType=Cartesian   XorR=-6   Y=1.5   Z=-16   SpecialJt=No   GUID=efccfe36-07dd-4214-98b6-3d103021e284
   Joint=64468   CoordSys=GLOBAL   CoordType=Cartesian   XorR=-3   Y=1.5   Z=-13.4180229476075   SpecialJt=No   GUID=dcbf71c8-f267-444d-a6b6-50d4c4323b28
   Joint=64469   CoordSys=GLOBAL   CoordType=Cartesian   XorR=-3   Y=1.5   Z=-16   SpecialJt=No   GUID=fdc840b0-a601-4d1f-bb51-1c50b1aced27
   Joint=64470   CoordSys=GLOBAL   CoordType=Cartesian   XorR=0   Y=1.5   Z=-13.4180229476075   SpecialJt=No   GUID=f2340742-4834-4bf3-a17d-21b3ec977ed3
   Joint=64471   CoordSys=GLOBAL   CoordType=Cartesian   XorR=0   Y=1.5   Z=-16   SpecialJt=No   GUID=379cd748-c996-4718-91ae-0e8225862426
   Joint=64472   CoordSys=GLOBAL   CoordType=Cartesian   XorR=3   Y=1.5   Z=-13.4180229476075   SpecialJt=No   GUID=4526ec13-da04-4f95-a7bc-2e613b7ddd26
   Joint=64473   CoordSys=GLOBAL   CoordType=Cartesian   XorR=3   Y=1.5   Z=-16   SpecialJt=No   GUID=40b6df83-f237-4c24-bab7-5fdc552877f7
   Joint=64474   CoordSys=GLOBAL   CoordType=Cartesian   XorR=6   Y=1.5   Z=-13.4180229476075   SpecialJt=No   GUID=dbe58c16-ef0b-4e38-b964-d6d596872e7e
   Joint=64475   CoordSys=GLOBAL   CoordType=Cartesian   XorR=6   Y=1.5   Z=-16   SpecialJt=No   GUID=ef5ffcb8-0fed-4d4c-95ed-37bdbddc8da6
   Joint=64476   CoordSys=GLOBAL   CoordType=Cartesian   XorR=9   Y=1.5   Z=-13.4180229476075   SpecialJt=No   GUID=23a235cf-b7d9-4744-b6f4-875cdce3a0fa
   Joint=64477   CoordSys=GLOBAL   CoordType=Cartesian   XorR=9   Y=1.5   Z=-16   SpecialJt=No   GUID=a7146459-4312-4907-b661-4290dba7fb5f
   Joint=64478   CoordSys=GLOBAL   CoordType=Cartesian   XorR=-9   Y=4.5   Z=-13.4180229476075   SpecialJt=No   GUID=100e28cb-d8a7-4077-8eb5-578081fb0684
   Joint=64479   CoordSys=GLOBAL   CoordType=Cartesian   XorR=-9   Y=4.5   Z=-16   SpecialJt=No   GUID=6bf7c18e-4365-42a2-ac70-01d8cf007493
   Joint=64480   CoordSys=GLOBAL   CoordType=Cartesian   XorR=-6   Y=4.5   Z=-13.4180229476075   SpecialJt=No   GUID=fb569514-cccf-4ae2-97a0-852f1799ecbe
   Joint=64481   CoordSys=GLOBAL   CoordType=Cartesian   XorR=-6   Y=4.5   Z=-16   SpecialJt=No   GUID=c6e3689c-1a8e-4e76-b26d-6674a65ee045
   Joint=64482   CoordSys=GLOBAL   CoordType=Cartesian   XorR=-3   Y=4.5   Z=-13.4180229476075   SpecialJt=No   GUID=63f3d722-a856-45fe-abfd-c6dec6703d53
   Joint=64483   CoordSys=GLOBAL   CoordType=Cartesian   XorR=-3   Y=4.5   Z=-16   SpecialJt=No   GUID=6f0d4f6c-2878-4918-adcc-9320a281d1a0
   Joint=64484   CoordSys=GLOBAL   CoordType=Cartesian   XorR=0   Y=4.5   Z=-13.4180229476075   SpecialJt=No   GUID=ac39c662-7784-4f82-89a5-94b7d233d9e8
   Joint=64485   CoordSys=GLOBAL   CoordType=Cartesian   XorR=0   Y=4.5   Z=-16   SpecialJt=No   GUID=d4e17a2c-48e7-4658-b49e-1d4ccdc360b4
   Joint=64486   CoordSys=GLOBAL   CoordType=Cartesian   XorR=3   Y=4.5   Z=-13.4180229476075   SpecialJt=No   GUID=6547805d-8d58-4928-bff8-ab4873bbedbc
   Joint=64487   CoordSys=GLOBAL   CoordType=Cartesian   XorR=3   Y=4.5   Z=-16   SpecialJt=No   GUID=7593df25-7c02-42b8-a9df-9fc0900cd124
   Joint=64488   CoordSys=GLOBAL   CoordType=Cartesian   XorR=6   Y=4.5   Z=-13.4180229476075   SpecialJt=No   GUID=8ddfb26c-3d6b-44b9-9b4a-fa1bf8f2f20d
   Joint=64489   CoordSys=GLOBAL   CoordType=Cartesian   XorR=6   Y=4.5   Z=-16   SpecialJt=No   GUID=376165f6-a2ec-4924-bf85-05df19c0d286
   Joint=64490   CoordSys=GLOBAL   CoordType=Cartesian   XorR=9   Y=4.5   Z=-13.4180229476075   SpecialJt=No   GUID=ad0eee74-ad93-4e22-8d1b-76a50ccb8fad
   Joint=64491   CoordSys=GLOBAL   CoordType=Cartesian   XorR=9   Y=4.5   Z=-16   SpecialJt=No   GUID=e98b7372-efb3-47f4-a746-f79868262ecf
   Joint=64492   CoordSys=GLOBAL   CoordType=Cartesian   XorR=-10   Y=-5   Z=0   SpecialJt=No   GUID=eefa04f1-3922-4863-96b9-63774d3f6cf1
   Joint=64493   CoordSys=GLOBAL   CoordType=Cartesian   XorR=10   Y=-5   Z=0   SpecialJt=No   GUID=67a4fbe2-e67a-4045-875a-05810fa81fd6
   Joint=64494   CoordSys=GLOBAL   CoordType=Cartesian   XorR=-10   Y=5   Z=0   SpecialJt=No   GUID=7ad74b31-d16c-4680-96a6-dc09def1cc14
   Joint=64495   CoordSys=GLOBAL   CoordType=Cartesian   XorR=10   Y=5   Z=0   SpecialJt=No   GUID=339789c4-1ad8-42d8-9355-49c15df74c5c
 
TABLE:  "JOINT PATTERN DEFINITIONS"
   Pattern=Default
 
TABLE:  "JOINT RESTRAINT ASSIGNMENTS"
   Joint=64430   U1=Yes   U2=Yes   U3=No   R1=Yes   R2=Yes   R3=Yes
   Joint=64431   U1=No   U2=No   U3=Yes   R1=No   R2=No   R3=No
   Joint=64433   U1=Yes   U2=Yes   U3=No   R1=Yes   R2=Yes   R3=Yes
   Joint=64434   U1=No   U2=No   U3=Yes   R1=No   R2=No   R3=No
   Joint=64436   U1=Yes   U2=Yes   U3=No   R1=Yes   R2=Yes   R3=Yes
   Joint=64437   U1=No   U2=No   U3=Yes   R1=No   R2=No   R3=No
   Joint=64439   U1=Yes   U2=Yes   U3=No   R1=Yes   R2=Yes   R3=Yes
   Joint=64440   U1=No   U2=No   U3=Yes   R1=No   R2=No   R3=No
   Joint=64442   U1=Yes   U2=Yes   U3=No   R1=Yes   R2=Yes   R3=Yes
   Joint=64443   U1=No   U2=No   U3=Yes   R1=No   R2=No   R3=No
   Joint=64445   U1=Yes   U2=Yes   U3=No   R1=Yes   R2=Yes   R3=Yes
   Joint=64446   U1=No   U2=No   U3=Yes   R1=No   R2=No   R3=No
   Joint=64448   U1=Yes   U2=Yes   U3=No   R1=Yes   R2=Yes   R3=Yes
   Joint=64449   U1=No   U2=No   U3=Yes   R1=No   R2=No   R3=No
   Joint=64450   U1=Yes   U2=Yes   U3=No   R1=Yes   R2=Yes   R3=Yes
   Joint=64451   U1=No   U2=No   U3=Yes   R1=No   R2=No   R3=No
   Joint=64452   U1=Yes   U2=Yes   U3=No   R1=Yes   R2=Yes   R3=Yes
   Joint=64453   U1=No   U2=No   U3=Yes   R1=No   R2=No   R3=No
   Joint=64454   U1=Yes   U2=Yes   U3=No   R1=Yes   R2=Yes   R3=Yes
   Joint=64455   U1=No   U2=No   U3=Yes   R1=No   R2=No   R3=No
   Joint=64456   U1=Yes   U2=Yes   U3=No   R1=Yes   R2=Yes   R3=Yes
   Joint=64457   U1=No   U2=No   U3=Yes   R1=No   R2=No   R3=No
   Joint=64458   U1=Yes   U2=Yes   U3=No   R1=Yes   R2=Yes   R3=Yes
   Joint=64459   U1=No   U2=No   U3=Yes   R1=No   R2=No   R3=No
   Joint=64460   U1=Yes   U2=Yes   U3=No   R1=Yes   R2=Yes   R3=Yes
   Joint=64461   U1=No   U2=No   U3=Yes   R1=No   R2=No   R3=No
   Joint=64462   U1=Yes   U2=Yes   U3=No   R1=Yes   R2=Yes   R3=Yes
   Joint=64463   U1=No   U2=No   U3=Yes   R1=No   R2=No   R3=No
   Joint=64464   U1=Yes   U2=Yes   U3=No   R1=Yes   R2=Yes   R3=Yes
   Joint=64465   U1=No   U2=No   U3=Yes   R1=No   R2=No   R3=No
   Joint=64466   U1=Yes   U2=Yes   U3=No   R1=Yes   R2=Yes   R3=Yes
   Joint=64467   U1=No   U2=No   U3=Yes   R1=No   R2=No   R3=No
   Joint=64468   U1=Yes   U2=Yes   U3=No   R1=Yes   R2=Yes   R3=Yes
   Joint=64469   U1=No   U2=No   U3=Yes   R1=No   R2=No   R3=No
   Joint=64470   U1=Yes   U2=Yes   U3=No   R1=Yes   R2=Yes   R3=Yes
   Joint=64471   U1=No   U2=No   U3=Yes   R1=No   R2=No   R3=No
   Joint=64472   U1=Yes   U2=Yes   U3=No   R1=Yes   R2=Yes   R3=Yes
   Joint=64473   U1=No   U2=No   U3=Yes   R1=No   R2=No   R3=No
   Joint=64474   U1=Yes   U2=Yes   U3=No   R1=Yes   R2=Yes   R3=Yes
   Joint=64475   U1=No   U2=No   U3=Yes   R1=No   R2=No   R3=No
# ... 16 like lines cut
 
TABLE:  "LOAD CASE DEFINITIONS"
   Case=DEAD   Type=LinStatic   InitialCond=Zero   DesTypeOpt="Prog Det"   DesignType=Dead   DesActOpt="Prog Det"   DesignAct=Non-Composite   AutoType=None   RunCase=Yes
   Case=MODAL   Type=LinModal   InitialCond=Zero   DesTypeOpt="Prog Det"   DesignType=Other   DesActOpt="Prog Det"   DesignAct=Other   AutoType=None   RunCase=Yes
   Case=LL   Type=LinStatic   InitialCond=Zero   DesTypeOpt="Prog Det"   DesignType=Live   DesActOpt="Prog Det"   DesignAct="Short-Term Composite"   AutoType=None   RunCase=Yes
 
TABLE:  "LOAD PATTERN DEFINITIONS"
   LoadPat=DEAD   DesignType=Dead   SelfWtMult=1
   LoadPat=LL   DesignType=Live   SelfWtMult=0
 
TABLE:  "MASS SOURCE"
   MassSource=MSSSRC1   Elements=Yes   Masses=Yes   Loads=No   IsDefault=Yes
 
TABLE:  "MATERIAL PROPERTIES 01 - GENERAL"
   Material=A706   Type=Rebar   SymType=Uniaxial   TempDepend=No   Color=Gray8Dark   GUID=30185aab-1311-4f4b-9ffe-ddad707d22d9   Notes="ASTM A706 added 8/23/2025 4:27:57 PM"
   Material=BTCT   Type=Concrete   SymType=Isotropic   TempDepend=No   Color=Blue   Notes="Concrete added 24-Feb-23 16:30:01"
   Material=BTCTCOC   Type=Concrete   SymType=Isotropic   TempDepend=No   Color=Blue   Notes="Concrete added 24-Feb-23 16:30:01"
   Material=Steel   Type=Steel   SymType=Isotropic   TempDepend=No   Color=Magenta   GUID=2f952889-4898-4964-97a4-5fb5c5008d33   Notes="Steel added 8/24/2025 2:51:43 PM"
   Material=Tendon   Type=Tendon   SymType=Uniaxial   TempDepend=No   Color=Yellow   GUID=7dfcd093-823e-4b3a-b96f-35d5bcaf456f   Notes="Tendon added 8/24/2025 2:51:43 PM"
 
TABLE:  "MATERIAL PROPERTIES 02 - BASIC MECHANICAL PROPERTIES"
   Material=A706   UnitWeight=7.84904757236607   UnitMass=0.800380070686609   E1=20389019.1580383   A1=1.16999994421006E-05
   Material=BTCT   UnitWeight=2.40276966501002   UnitMass=0.245014307353044   E1=2900000   G12=1208333.33333333   U12=0.2   A1=9.9E-06
   Material=BTCTCOC   UnitWeight=2.40276966501002   UnitMass=0.245014307353044   E1=3800000000   G12=1583333333.33333   U12=0.2   A1=9.9E-06
   Material=Steel   UnitWeight=7.84904757236607   UnitMass=0.800380070686609   E1=20389019.1580383   G12=7841930.44539935   U12=0.3   A1=1.17E-05
   Material=Tendon   UnitWeight=7.84904757236607   UnitMass=0.800380070686609   E1=20037484.3449687   A1=1.16999994421006E-05
 
TABLE:  "MATERIAL PROPERTIES 03A - STEEL DATA"
   Material=Steel   Fy=35153.4813069626   Fu=45699.5256990514   EffFy=38668.8294376589   EffFu=50269.4782689565   SSCurveOpt=Simple   SSHysType=Kinematic   SHard=0.015   SMax=0.11   SRup=0.17   FinalSlope=-0.1   CoupModType="Von Mises"
 
TABLE:  "MATERIAL PROPERTIES 03B - CONCRETE DATA"
   Material=BTCT   Fc=2812.27850455701   eFc=2812.27850455701   LtWtConc=No   SSCurveOpt=Mander   SSHysType=Takeda   SFc=0.002   SCap=0.005   FinalSlope=-0.1   FAngle=0   DAngle=0   CoupModType="Modified Darwin-Pecknold"
   Material=BTCTCOC   Fc=2812.27850455701   eFc=2812.27850455701   LtWtConc=No   SSCurveOpt=Mander   SSHysType=Takeda   SFc=0.002   SCap=0.005   FinalSlope=-0.1   FAngle=0   DAngle=0   CoupModType="Modified Darwin-Pecknold"
 
TABLE:  "MATERIAL PROPERTIES 03E - REBAR DATA"
   Material=A706   Fy=42184.1775683551   Fu=56245.5700911402   EffFy=46402.5953251907   EffFu=61870.1271002542   SSCurveOpt=Simple   SSHysType=Kinematic   SHard=0.011   SCap=0.11   FinalSlope=-0.1   UseCTDef=No   CoupModType="Von Mises"
 
TABLE:  "MATERIAL PROPERTIES 03F - TENDON DATA"
   Material=Tendon   Fy=172322.365366731   Fu=189828.799057598   SSCurveOpt="270 ksi"   SSHysType=Kinematic   FinalSlope=-0.1   CoupModType="Von Mises"
 
TABLE:  "MATERIAL PROPERTIES 03J - COUPLED NONLINEAR VON MISES DATA"
   Material=A706   YieldStress=46402.5953251907   LinIsoHard=No   LinKinHard=No   NLIsoSaHard=No
   Material=Steel   YieldStress=38668.8294376589   LinIsoHard=No   LinKinHard=No   NLIsoSaHard=No
   Material=Tendon   YieldStress=172322.365366731   LinIsoHard=No   LinKinHard=No   NLIsoSaHard=No
 
TABLE:  "MATERIAL PROPERTIES 06 - DAMPING PARAMETERS"
   Material=A706   ModalRatio=0   VisMass=0   VisStiff=0   HysMass=0   HysStiff=0
   Material=BTCT   ModalRatio=0   VisMass=0   VisStiff=0   HysMass=0   HysStiff=0
   Material=BTCTCOC   ModalRatio=0   VisMass=0   VisStiff=0   HysMass=0   HysStiff=0
   Material=Steel   ModalRatio=0   VisMass=0   VisStiff=0   HysMass=0   HysStiff=0
   Material=Tendon   ModalRatio=0   VisMass=0   VisStiff=0   HysMass=0   HysStiff=0
 
TABLE:  "MATERIAL PROPERTIES 09 - ACCEPTANCE CRITERIA"
   Material=A706   IOTens=0.01   LSTens=0.02   CPTens=0.05   IOComp=-0.005   LSComp=-0.01   CPComp=-0.02
   Material=BTCT   IOTens=0.01   LSTens=0.02   CPTens=0.05   IOComp=-0.003   LSComp=-0.006   CPComp=-0.015   IgnoreTens=Yes
   Material=BTCTCOC   IOTens=0.01   LSTens=0.02   CPTens=0.05   IOComp=-0.003   LSComp=-0.006   CPComp=-0.015   IgnoreTens=Yes
   Material=Steel   IOTens=0.01   LSTens=0.02   CPTens=0.05   IOComp=-0.005   LSComp=-0.01   CPComp=-0.02
   Material=Tendon   IOTens=0.015   LSTens=0.023   CPTens=0.03   IOComp=-0.015   LSComp=-0.023   CPComp=-0.03
 
TABLE:  "OPTIONS - COLORS - DISPLAY"
   DeviceType=Screen   Points=Blue   LinesFrame=Blue   LinesFrmDL=Blue   LinesCable=Green   LinesTendon=Green   SpringLinks=Green   Restraints=Green   Releases=Green   Axes=Cyan   Text=Black   ShadowLines=Gray8Dark   GuideLines=Gray8Dark _
        Highlight=Red   Selection=10504778   AreaFillBot=Red   AreaFillTop=16744703   AreaFillSd=Red   AreaEdge=DarkRed   SolidF1=Red   SolidF2=Blue   SolidF3=Green   SolidF4=Yellow   SolidF5=White   SolidF6=Cyan   SolidEdge=DarkRed _
        Floor=Gray4   Background=White   BGLowLeft=White   BGLowRight=White   BGUpRight=White   Darkness=0.5
   DeviceType=Printer   Points=Gray8Dark   LinesFrame=Black   LinesFrmDL=Gray4   LinesCable=Black   LinesTendon=Black   SpringLinks=Gray8Dark   Restraints=Gray8Dark   Releases=Gray4   Axes=Black   Text=Black   ShadowLines=Gray4 _
        GuideLines=Gray4   Highlight=Black   Selection=Black   AreaFillBot=Gray4   AreaFillTop=Gray8Dark   AreaFillSd=Gray4   AreaEdge=Black   SolidF1=Gray1Light   SolidF2=Gray2   SolidF3=Gray3   SolidF4=Gray4   SolidF5=Gray5 _
        SolidF6=Gray6   SolidEdge=Black   Floor=Gray4   Background=White   BGLowLeft=White   BGLowRight=White   BGUpRight=White   Darkness=0.5
   DeviceType="Color Printer"   Points=Blue   LinesFrame=Blue   LinesFrmDL=Blue   LinesCable=Green   LinesTendon=Green   SpringLinks=Green   Restraints=Green   Releases=Green   Axes=Cyan   Text=Black   ShadowLines=Gray8Dark _
        GuideLines=Gray8Dark   Highlight=Red   Selection=10504778   AreaFillBot=Red   AreaFillTop=16744703   AreaFillSd=Red   AreaEdge=DarkRed   SolidF1=Red   SolidF2=Blue   SolidF3=Green   SolidF4=Yellow   SolidF5=White   SolidF6=Cyan _
        SolidEdge=DarkRed   Floor=Gray4   Background=White   BGLowLeft=White   BGLowRight=White   BGUpRight=White   Darkness=0.5
 
TABLE:  "OPTIONS - COLORS - OUTPUT"
   DeviceType=Screen   Contour1=13107400   Contour2=6553828   Contour3=Red   Contour4=16639   Contour5=Orange   Contour6=43775   Contour7=54527   Contour8=Yellow   Contour9=65408   Contour10=Green   Contour11=8453888   Contour12=Cyan _
        Contour13=16755200   Contour14=16733440   Contour15=Blue   Transpare=0.5   Ratio1=Cyan   Ratio2=Green   Ratio3=Yellow   Ratio4=Orange   Ratio5=Red   RatioNotD=Gray4   RatioNotC=Red   RatioVal1=0.5   RatioVal2=0.7   RatioVal3=0.9 _
        RatioVal4=1   DFillPos=Blue   DFillNeg=Red   DFillRPos=Green   DFillRNeg=Green
   DeviceType=Printer   Contour1=Black   Contour2=3158064   Contour3=4210752   Contour4=5263440   Contour5=6316128   Contour6=7368816   Contour7=Gray8Dark   Contour8=Gray7   Contour9=Gray6   Contour10=Gray5   Contour11=Gray4 _
        Contour12=Gray3   Contour13=Gray2   Contour14=Gray1Light   Contour15=White   Transpare=0   Ratio1=Gray2   Ratio2=Gray4   Ratio3=Gray8Dark   Ratio4=4210752   Ratio5=Black   RatioNotD=Gray4   RatioNotC=Black   RatioVal1=0.5 _
        RatioVal2=0.7   RatioVal3=0.9   RatioVal4=1   DFillPos=Gray8Dark   DFillNeg=Gray8Dark   DFillRPos=4210752   DFillRNeg=4210752
   DeviceType="Color Printer"   Contour1=13107400   Contour2=6553828   Contour3=Red   Contour4=16639   Contour5=Orange   Contour6=43775   Contour7=54527   Contour8=Yellow   Contour9=65408   Contour10=Green   Contour11=8453888 _
        Contour12=Cyan   Contour13=16755200   Contour14=16733440   Contour15=Blue   Transpare=0   Ratio1=Cyan   Ratio2=Green   Ratio3=Yellow   Ratio4=Orange   Ratio5=Red   RatioNotD=Gray4   RatioNotC=Red   RatioVal1=0.5   RatioVal2=0.7 _
        RatioVal3=0.9   RatioVal4=1   DFillPos=Blue   DFillNeg=Red   DFillRPos=Green   DFillRNeg=Green
 
TABLE:  "OVERWRITES - CONCRETE DESIGN - CSA-A233-14"
   Frame=71175   DesignSect="Program Determined"   FrameType="Program Determined"   RLLF=0   XLMajor=0   XLMinor=0   XKMajor=0   XKMinor=0   CmMajor=0   CmMinor=0   DbMajor=0   DbMinor=0   DsMajor=0   DsMinor=0   Rd=0   Ro=0   MaxAggSize=0
   Frame=71176   DesignSect="Program Determined"   FrameType="Program Determined"   RLLF=0   XLMajor=0   XLMinor=0   XKMajor=0   XKMinor=0   CmMajor=0   CmMinor=0   DbMajor=0   DbMinor=0   DsMajor=0   DsMinor=0   Rd=0   Ro=0   MaxAggSize=0
   Frame=71177   DesignSect="Program Determined"   FrameType="Program Determined"   RLLF=0   XLMajor=0   XLMinor=0   XKMajor=0   XKMinor=0   CmMajor=0   CmMinor=0   DbMajor=0   DbMinor=0   DsMajor=0   DsMinor=0   Rd=0   Ro=0   MaxAggSize=0
   Frame=71178   DesignSect="Program Determined"   FrameType="Program Determined"   RLLF=0   XLMajor=0   XLMinor=0   XKMajor=0   XKMinor=0   CmMajor=0   CmMinor=0   DbMajor=0   DbMinor=0   DsMajor=0   DsMinor=0   Rd=0   Ro=0   MaxAggSize=0
   Frame=71179   DesignSect="Program Determined"   FrameType="Program Determined"   RLLF=0   XLMajor=0   XLMinor=0   XKMajor=0   XKMinor=0   CmMajor=0   CmMinor=0   DbMajor=0   DbMinor=0   DsMajor=0   DsMinor=0   Rd=0   Ro=0   MaxAggSize=0
   Frame=71180   DesignSect="Program Determined"   FrameType="Program Determined"   RLLF=0   XLMajor=0   XLMinor=0   XKMajor=0   XKMinor=0   CmMajor=0   CmMinor=0   DbMajor=0   DbMinor=0   DsMajor=0   DsMinor=0   Rd=0   Ro=0   MaxAggSize=0
   Frame=71181   DesignSect="Program Determined"   FrameType="Program Determined"   RLLF=0   XLMajor=0   XLMinor=0   XKMajor=0   XKMinor=0   CmMajor=0   CmMinor=0   DbMajor=0   DbMinor=0   DsMajor=0   DsMinor=0   Rd=0   Ro=0   MaxAggSize=0
   Frame=71182   DesignSect="Program Determined"   FrameType="Program Determined"   RLLF=0   XLMajor=0   XLMinor=0   XKMajor=0   XKMinor=0   CmMajor=0   CmMinor=0   DbMajor=0   DbMinor=0   DsMajor=0   DsMinor=0   Rd=0   Ro=0   MaxAggSize=0
   Frame=71183   DesignSect="Program Determined"   FrameType="Program Determined"   RLLF=0   XLMajor=0   XLMinor=0   XKMajor=0   XKMinor=0   CmMajor=0   CmMinor=0   DbMajor=0   DbMinor=0   DsMajor=0   DsMinor=0   Rd=0   Ro=0   MaxAggSize=0
   Frame=71184   DesignSect="Program Determined"   FrameType="Program Determined"   RLLF=0   XLMajor=0   XLMinor=0   XKMajor=0   XKMinor=0   CmMajor=0   CmMinor=0   DbMajor=0   DbMinor=0   DsMajor=0   DsMinor=0   Rd=0   Ro=0   MaxAggSize=0
   Frame=71185   DesignSect="Program Determined"   FrameType="Program Determined"   RLLF=0   XLMajor=0   XLMinor=0   XKMajor=0   XKMinor=0   CmMajor=0   CmMinor=0   DbMajor=0   DbMinor=0   DsMajor=0   DsMinor=0   Rd=0   Ro=0   MaxAggSize=0
   Frame=71186   DesignSect="Program Determined"   FrameType="Program Determined"   RLLF=0   XLMajor=0   XLMinor=0   XKMajor=0   XKMinor=0   CmMajor=0   CmMinor=0   DbMajor=0   DbMinor=0   DsMajor=0   DsMinor=0   Rd=0   Ro=0   MaxAggSize=0
   Frame=71187   DesignSect="Program Determined"   FrameType="Program Determined"   RLLF=0   XLMajor=0   XLMinor=0   XKMajor=0   XKMinor=0   CmMajor=0   CmMinor=0   DbMajor=0   DbMinor=0   DsMajor=0   DsMinor=0   Rd=0   Ro=0   MaxAggSize=0
   Frame=71188   DesignSect="Program Determined"   FrameType="Program Determined"   RLLF=0   XLMajor=0   XLMinor=0   XKMajor=0   XKMinor=0   CmMajor=0   CmMinor=0   DbMajor=0   DbMinor=0   DsMajor=0   DsMinor=0   Rd=0   Ro=0   MaxAggSize=0
   Frame=71189   DesignSect="Program Determined"   FrameType="Program Determined"   RLLF=0   XLMajor=0   XLMinor=0   XKMajor=0   XKMinor=0   CmMajor=0   CmMinor=0   DbMajor=0   DbMinor=0   DsMajor=0   DsMinor=0   Rd=0   Ro=0   MaxAggSize=0
   Frame=71190   DesignSect="Program Determined"   FrameType="Program Determined"   RLLF=0   XLMajor=0   XLMinor=0   XKMajor=0   XKMinor=0   CmMajor=0   CmMinor=0   DbMajor=0   DbMinor=0   DsMajor=0   DsMinor=0   Rd=0   Ro=0   MaxAggSize=0
   Frame=71191   DesignSect="Program Determined"   FrameType="Program Determined"   RLLF=0   XLMajor=0   XLMinor=0   XKMajor=0   XKMinor=0   CmMajor=0   CmMinor=0   DbMajor=0   DbMinor=0   DsMajor=0   DsMinor=0   Rd=0   Ro=0   MaxAggSize=0
   Frame=71192   DesignSect="Program Determined"   FrameType="Program Determined"   RLLF=0   XLMajor=0   XLMinor=0   XKMajor=0   XKMinor=0   CmMajor=0   CmMinor=0   DbMajor=0   DbMinor=0   DsMajor=0   DsMinor=0   Rd=0   Ro=0   MaxAggSize=0
   Frame=71193   DesignSect="Program Determined"   FrameType="Program Determined"   RLLF=0   XLMajor=0   XLMinor=0   XKMajor=0   XKMinor=0   CmMajor=0   CmMinor=0   DbMajor=0   DbMinor=0   DsMajor=0   DsMinor=0   Rd=0   Ro=0   MaxAggSize=0
   Frame=71194   DesignSect="Program Determined"   FrameType="Program Determined"   RLLF=0   XLMajor=0   XLMinor=0   XKMajor=0   XKMinor=0   CmMajor=0   CmMinor=0   DbMajor=0   DbMinor=0   DsMajor=0   DsMinor=0   Rd=0   Ro=0   MaxAggSize=0
# ... 60 like lines cut
 
TABLE:  "PREFERENCES - ALUMINUM DESIGN - AA 2015"
   THDesign=Envelopes   SRatioLimit=1   Provision=ASD   LatFact=1.33333333333333   UseLatFact=No   Bridge=No   OmegaTy=1.65   OmegaTr=1.95   OmegaC=1.65   OmegaBo=1.65   OmegaBr=1.95   OmegaVo=1.65   OmegaVr=1.95
 
TABLE:  "PREFERENCES - COLD FORMED DESIGN - AISI-ASD96"
   THDesign=Envelopes   FrameType="Braced Frame"   SRatioLimit=1   MaxIter=1   OmegaBS=1.67   OmegaBUS=1.67   OmegaBLTB=1.67   OmegaVS=1.67   OmegaVNS=1.5   OmegaT=1.67   OmegaC=1.8
 
TABLE:  "PREFERENCES - CONCRETE DESIGN - CSA-A233-14"
   THDesign=Envelopes   NumCurves=24   NumPoints=11   MinEccen=Yes   BCCDesign=Yes   CTorsion=Yes   PatLLF=0.75   UFLimit=0.95   PhiS=0.85   PhiC=0.65
 
TABLE:  "PREFERENCES - CONCRETE SHELL DESIGN - EUROCODE 2-2004"
   Country="CEN Default"   GammaS=1.15   GammaC=1.5   AlphaCC=1
 
TABLE:  "PREFERENCES - DIMENSIONAL"
   MergeTol=0.001   FineGrid=0.25   Nudge=0.25   SelectTol=3   SnapTol=12   SLineThick=1   PLineThick=4   MaxFont=8   MinFont=3   AutoZoom=10   ShrinkFact=70   TextFileLen=240
 
TABLE:  "PREFERENCES - STEEL DESIGN - AISC 360-10"
   THDesign=Envelopes   FrameType=SMF   PatLLF=0.75   SRatioLimit=0.95   MaxIter=1   SDC=D   SeisCode=No   SeisLoad=No   ImpFactor=1   SystemRho=1   SystemSds=0.5   SystemR=8   SystemCd=5.5   Omega0=3   Provision=LRFD _
        AMethod="Direct Analysis"   SOMethod="General 2nd Order"   SRMethod="Tau-b Fixed"   NLCoeff=0.002   PhiB=0.9   PhiC=0.9   PhiTY=0.9   PhiTF=0.75   PhiV=0.9   PhiVRolledI=1   PhiVT=0.9   PlugWeld=Yes   HSSWelding=ERW   HSSReduceT=No _
        CheckDefl=No   DLRat=120   SDLAndLLRat=120   LLRat=360   TotalRat=240   NetRat=240
 
TABLE:  "PROGRAM CONTROL"
   ProgramName=SAP2000   Version=24.0.0   CurrUnits="Tonf, m, C"   SteelCode="AISC 360-10"   ConcCode="CSA A23.3-14"   AlumCode="AA 2015"   ColdCode=AISI-ASD96   RegenHinge=Yes
 
TABLE:  "PROJECT INFORMATION"
   Item="Company Name"   Data=po
   Item="Client Name"
   Item="Project Name"
   Item="Project Number"
   Item="Model Name"
   Item="Model Description"
   Item="Revision Number"
   Item="Frame Type"
   Item=Engineer
   Item=Checker
   Item=Supervisor
   Item="Issue Code"
   Item="Design Code"
 
TABLE:  "REBAR SIZES"
   RebarID=#2   Area=3.2258E-05   Diameter=0.00635
   RebarID=#3   Area=7.09675996154547E-05   Diameter=0.009525
   RebarID=#4   Area=0.000129032001922727   Diameter=0.0127
   RebarID=#5   Area=0.000199999601538181   Diameter=0.015875
   RebarID=#6   Area=0.000283870398461819   Diameter=0.01905
   RebarID=#7   Area=0.000387096015381813   Diameter=0.022225
   RebarID=#8   Area=0.000509676413843632   Diameter=0.0254
   RebarID=#9   Area=0.00064516   Diameter=0.0286512005329132
   RebarID=#10   Area=0.00081935318769455   Diameter=0.0322579995155334
   RebarID=#11   Area=0.00100644956308365   Diameter=0.0358139991521835
   RebarID=#14   Area=0.00145161   Diameter=0.0430021989583969
   RebarID=#18   Area=0.00258064   Diameter=0.0573277992248535
   RebarID=10M   Area=0.000100000004162606   Diameter=0.0113000003604438
   RebarID=15M   Area=0.000200000008325212   Diameter=0.0160000002402959
   RebarID=20M   Area=0.000300000012487818   Diameter=0.0195000002928606
   RebarID=25M   Area=0.000500000020813031   Diameter=0.0252000011414055
   RebarID=30M   Area=0.000700000029138243   Diameter=0.0299000000675832
   RebarID=35M   Area=0.00100000004162606   Diameter=0.0357000012990997
   RebarID=45M   Area=0.00150000006243909   Diameter=0.0437000014192476
   RebarID=55M   Area=0.00250000010406515   Diameter=0.056400002372922
   RebarID=6d   Area=2.83000004150781E-05   Diameter=0.00600000009011096
   RebarID=8d   Area=5.03000013308514E-05   Diameter=0.00800000012014795
   RebarID=10d   Area=7.85000032676458E-05   Diameter=0.0100000001501849
   RebarID=12d   Area=0.000113000004703745   Diameter=0.0120000001802219
   RebarID=14d   Area=0.000154000006410413   Diameter=0.0140000002102589
   RebarID=16d   Area=0.000201000008366838   Diameter=0.0160000002402959
   RebarID=20d   Area=0.000314000013070583   Diameter=0.0200000003003699
   RebarID=25d   Area=0.000491000020438396   Diameter=0.0250000003754623
   RebarID=26d   Area=0.000531000022103439   Diameter=0.0260000003904808
   RebarID=28d   Area=0.000616000025641654   Diameter=0.0280000004205178
   RebarID=N12   Area=0.000113000004703745   Diameter=0.0120000001802219
   RebarID=N16   Area=0.000201000008366838   Diameter=0.0160000002402959
   RebarID=N20   Area=0.000314000013070583   Diameter=0.0200000003003699
   RebarID=N24   Area=0.00045200001881498   Diameter=0.0240000003604438
   RebarID=N28   Area=0.000616000025641654   Diameter=0.0280000004205178
   RebarID=N32   Area=0.000804000033467353   Diameter=0.0320000004805918
   RebarID=N36   Area=0.00102000004245858   Diameter=0.0360000005406658
 
TABLE:  "SOLID PROPERTY DEFINITIONS"
   SolidProp=Solid1   Material=BTCT   MatAngleA=0   MatAngleB=0   MatAngleC=0   InComp=Yes   Color=Gray8Dark
 
END TABLE DATA
