File D:\ResearchLab\02_Projects\02_Projects\Tap chi XD_SFOA\code\SOO_MPJ\MPJ_Sap\SOO_Cost_W04\MPJ_4.$2k was saved on m/d/yy at h:mm:ss
 
TABLE:  "ACTIVE DEGREES OF FREEDOM"
   UX=Yes   UY=Yes   UZ=Yes   RX=Yes   RY=Yes   RZ=Yes
 
TABLE:  "ANALYSIS OPTIONS"
   Solver=Advanced   SolverProc=Auto   Force32Bit=No   StiffCase=None   GeomMod=None   HingeOpt="In Elements"   NumAThreads=0   MaxFileSize=0   NumDThreads=0   NumRThreads=0   UseMMFiles="Program Determined"   AllowDiff=No
 
TABLE:  "AREA AUTO MESH ASSIGNMENTS"
   Area=229750   MeshType="Number of Elements"   MeshGroup=ALL   Number1=3   Number2=3   LocalEdge=No   LocalFace=No   SuppEdge=No   SuppFace=No   SubMesh=No
   Area=229751   MeshType="Number of Elements"   MeshGroup=ALL   Number1=3   Number2=3   LocalEdge=No   LocalFace=No   SuppEdge=No   SuppFace=No   SubMesh=No
   Area=229752   MeshType="Number of Elements"   MeshGroup=ALL   Number1=3   Number2=3   LocalEdge=No   LocalFace=No   SuppEdge=No   SuppFace=No   SubMesh=No
   Area=229753   MeshType="Number of Elements"   MeshGroup=ALL   Number1=3   Number2=3   LocalEdge=No   LocalFace=No   SuppEdge=No   SuppFace=No   SubMesh=No
   Area=229754   MeshType="Number of Elements"   MeshGroup=ALL   Number1=3   Number2=3   LocalEdge=No   LocalFace=No   SuppEdge=No   SuppFace=No   SubMesh=No
   Area=229755   MeshType="Number of Elements"   MeshGroup=ALL   Number1=3   Number2=3   LocalEdge=No   LocalFace=No   SuppEdge=No   SuppFace=No   SubMesh=No
   Area=229756   MeshType="Number of Elements"   MeshGroup=ALL   Number1=3   Number2=3   LocalEdge=No   LocalFace=No   SuppEdge=No   SuppFace=No   SubMesh=No
   Area=229757   MeshType="Number of Elements"   MeshGroup=ALL   Number1=3   Number2=3   LocalEdge=No   LocalFace=No   SuppEdge=No   SuppFace=No   SubMesh=No
   Area=229758   MeshType="Number of Elements"   MeshGroup=ALL   Number1=3   Number2=3   LocalEdge=No   LocalFace=No   SuppEdge=No   SuppFace=No   SubMesh=No
   Area=229759   MeshType="Number of Elements"   MeshGroup=ALL   Number1=3   Number2=3   LocalEdge=No   LocalFace=No   SuppEdge=No   SuppFace=No   SubMesh=No
   Area=229760   MeshType="Number of Elements"   MeshGroup=ALL   Number1=3   Number2=3   LocalEdge=No   LocalFace=No   SuppEdge=No   SuppFace=No   SubMesh=No
   Area=229761   MeshType="Number of Elements"   MeshGroup=ALL   Number1=3   Number2=3   LocalEdge=No   LocalFace=No   SuppEdge=No   SuppFace=No   SubMesh=No
   Area=229762   MeshType="Number of Elements"   MeshGroup=ALL   Number1=3   Number2=3   LocalEdge=No   LocalFace=No   SuppEdge=No   SuppFace=No   SubMesh=No
   Area=229763   MeshType="Number of Elements"   MeshGroup=ALL   Number1=3   Number2=3   LocalEdge=No   LocalFace=No   SuppEdge=No   SuppFace=No   SubMesh=No
   Area=229764   MeshType="Number of Elements"   MeshGroup=ALL   Number1=3   Number2=3   LocalEdge=No   LocalFace=No   SuppEdge=No   SuppFace=No   SubMesh=No
   Area=229765   MeshType="Number of Elements"   MeshGroup=ALL   Number1=3   Number2=3   LocalEdge=No   LocalFace=No   SuppEdge=No   SuppFace=No   SubMesh=No
   Area=229766   MeshType="Number of Elements"   MeshGroup=ALL   Number1=3   Number2=3   LocalEdge=No   LocalFace=No   SuppEdge=No   SuppFace=No   SubMesh=No
   Area=229767   MeshType="Number of Elements"   MeshGroup=ALL   Number1=3   Number2=3   LocalEdge=No   LocalFace=No   SuppEdge=No   SuppFace=No   SubMesh=No
   Area=229768   MeshType="Number of Elements"   MeshGroup=ALL   Number1=3   Number2=3   LocalEdge=No   LocalFace=No   SuppEdge=No   SuppFace=No   SubMesh=No
   Area=229769   MeshType="Number of Elements"   MeshGroup=ALL   Number1=3   Number2=3   LocalEdge=No   LocalFace=No   SuppEdge=No   SuppFace=No   SubMesh=No
# ... 4 like lines cut
 
TABLE:  "AREA LOADS - UNIFORM"
   Area=229750   LoadPat=LL   CoordSys=GLOBAL   Dir=Gravity   UnifLoad=1.00034158457019
   Area=229751   LoadPat=LL   CoordSys=GLOBAL   Dir=Gravity   UnifLoad=1.00034158457019
   Area=229752   LoadPat=LL   CoordSys=GLOBAL   Dir=Gravity   UnifLoad=1.00034158457019
   Area=229753   LoadPat=LL   CoordSys=GLOBAL   Dir=Gravity   UnifLoad=1.00034158457019
   Area=229754   LoadPat=LL   CoordSys=GLOBAL   Dir=Gravity   UnifLoad=1.00034158457019
   Area=229755   LoadPat=LL   CoordSys=GLOBAL   Dir=Gravity   UnifLoad=1.00034158457019
   Area=229756   LoadPat=LL   CoordSys=GLOBAL   Dir=Gravity   UnifLoad=1.00034158457019
   Area=229757   LoadPat=LL   CoordSys=GLOBAL   Dir=Gravity   UnifLoad=1.00034158457019
   Area=229758   LoadPat=LL   CoordSys=GLOBAL   Dir=Gravity   UnifLoad=1.00034158457019
   Area=229759   LoadPat=LL   CoordSys=GLOBAL   Dir=Gravity   UnifLoad=1.00034158457019
   Area=229760   LoadPat=LL   CoordSys=GLOBAL   Dir=Gravity   UnifLoad=1.00034158457019
   Area=229761   LoadPat=LL   CoordSys=GLOBAL   Dir=Gravity   UnifLoad=1.00034158457019
   Area=229762   LoadPat=LL   CoordSys=GLOBAL   Dir=Gravity   UnifLoad=1.00034158457019
   Area=229763   LoadPat=LL   CoordSys=GLOBAL   Dir=Gravity   UnifLoad=1.00034158457019
   Area=229764   LoadPat=LL   CoordSys=GLOBAL   Dir=Gravity   UnifLoad=1.00034158457019
   Area=229765   LoadPat=LL   CoordSys=GLOBAL   Dir=Gravity   UnifLoad=1.00034158457019
   Area=229766   LoadPat=LL   CoordSys=GLOBAL   Dir=Gravity   UnifLoad=1.00034158457019
   Area=229767   LoadPat=LL   CoordSys=GLOBAL   Dir=Gravity   UnifLoad=1.00034158457019
   Area=229768   LoadPat=LL   CoordSys=GLOBAL   Dir=Gravity   UnifLoad=1.00034158457019
   Area=229769   LoadPat=LL   CoordSys=GLOBAL   Dir=Gravity   UnifLoad=1.00034158457019
# ... 4 like lines cut
 
TABLE:  "AREA SECTION ASSIGNMENTS"
   Area=229750   Section=Deck   MatProp=Default
   Area=229751   Section=Deck   MatProp=Default
   Area=229752   Section=Deck   MatProp=Default
   Area=229753   Section=Deck   MatProp=Default
   Area=229754   Section=Deck   MatProp=Default
   Area=229755   Section=Deck   MatProp=Default
   Area=229756   Section=Deck   MatProp=Default
   Area=229757   Section=Deck   MatProp=Default
   Area=229758   Section=Deck   MatProp=Default
   Area=229759   Section=Deck   MatProp=Default
   Area=229760   Section=Deck   MatProp=Default
   Area=229761   Section=Deck   MatProp=Default
   Area=229762   Section=Deck   MatProp=Default
   Area=229763   Section=Deck   MatProp=Default
   Area=229764   Section=Deck   MatProp=Default
   Area=229765   Section=Deck   MatProp=Default
   Area=229766   Section=Deck   MatProp=Default
   Area=229767   Section=Deck   MatProp=Default
   Area=229768   Section=Deck   MatProp=Default
   Area=229769   Section=Deck   MatProp=Default
# ... 4 like lines cut
 
TABLE:  "AREA SECTION PROPERTIES"
   Section=Deck   Material=BTCT   MatAngle=0   AreaType=Shell   Type=Shell-Thin   DrillDOF=Yes   Thickness=0.3   BendThick=0.3   Color=Green   F11Mod=1   F22Mod=1   F12Mod=1   M11Mod=1   M22Mod=1   M12Mod=1   V13Mod=1   V23Mod=1   MMod=1 _
        WMod=1   Notes="Added 24-Feb-23 16:56:47"
 
TABLE:  "AREA SECTION PROPERTY DESIGN PARAMETERS"
   Section=Deck   RebarMat=None   RebarOpt=Default
 
TABLE:  "AREA SECTION PROPERTY - TIME DEPENDENT"
   Section=Deck   TypeSize=User   AutoSFSize=1   UserValSize=0.1
 
TABLE:  "AUTO COMBINATION OPTION DATA 01 - GENERAL"
   DesignType=Concrete   AutoGen=Yes
 
TABLE:  "AUTO COMBINATION OPTION DATA 02 - USER DATA"
   DesignType=Concrete   LSType=Strength   LCName=DEAD
   DesignType=Concrete   LSType=Strength   LCName=LL
 
TABLE:  "AUTO WAVE 3 - WAVE CHARACTERISTICS - GENERAL"
   WaveChar=Default   WaveType="From Theory"   KinFactor=1   SWaterDepth=45   WaveHeight=18   WavePeriod=12   WaveTheory=Linear
 
TABLE:  "CASE - MODAL 1 - GENERAL"
   Case=MODAL   ModeType=Eigen   MaxNumModes=12   MinNumModes=1   EigenShift=0   EigenCutoff=0   EigenTol=1E-09   AutoShift=Yes
 
TABLE:  "CASE - STATIC 1 - LOAD ASSIGNMENTS"
   Case=DEAD   LoadType="Load pattern"   LoadName=DEAD   LoadSF=1
   Case=LL   LoadType="Load pattern"   LoadName=LL   LoadSF=1
 
TABLE:  "COMBINATION DEFINITIONS"
   ComboName=COMB1   ComboType="Linear Add"   AutoDesign=No   CaseName=DEAD   ScaleFactor=1   SteelDesign=None   ConcDesign=Strength   AlumDesign=None   ColdDesign=None
   ComboName=COMB2   ComboType="Linear Add"   AutoDesign=No   CaseName=DEAD   ScaleFactor=1   SteelDesign=None   ConcDesign=Strength   AlumDesign=None   ColdDesign=None
   ComboName=COMB2   CaseName=LL   ScaleFactor=1
   ComboName=BAO   ComboType=Envelope   AutoDesign=No   CaseName=COMB1   ScaleFactor=1   SteelDesign=None   ConcDesign=Strength   AlumDesign=None   ColdDesign=None
   ComboName=BAO   CaseName=COMB2   ScaleFactor=1
   ComboName=DCON1   ComboType="Linear Add"   AutoDesign=Yes   CaseName=DEAD   ScaleFactor=1.4   SteelDesign=None   ConcDesign=Strength   AlumDesign=None   ColdDesign=None   GUID=bb4fff9a-98b5-44d1-9fde-34d92700a8e9   Notes="Dead Only; Strength"
   ComboName=DCON2   ComboType="Linear Add"   AutoDesign=Yes   CaseName=DEAD   ScaleFactor=1.25   SteelDesign=None   ConcDesign=Strength   AlumDesign=None   ColdDesign=None   GUID=505bcda7-6fac-4dd0-b03e-c591d1ffc6ce   Notes="Dead + Live; Strength"
   ComboName=DCON2   CaseName=LL   ScaleFactor=1.5
 
TABLE:  "CONNECTIVITY - AREA"
   Area=229750   Joint1=671980   Joint2=671941   Joint3=671914   Joint4=671913   GUID=7df609ef-b661-49e5-8be7-0498a4b21a0f
   Area=229751   Joint1=671913   Joint2=671914   Joint3=671916   Joint4=671915   GUID=882e4ba1-4134-47b4-80c2-3bb9e46e535d
   Area=229752   Joint1=671915   Joint2=671916   Joint3=671918   Joint4=671917   GUID=00d40a11-0997-4c40-9fc9-7a6405ddf7ef
   Area=229753   Joint1=671917   Joint2=671918   Joint3=671920   Joint4=671919   GUID=85d2cf54-819d-4326-a057-0573024c7544
   Area=229754   Joint1=671919   Joint2=671920   Joint3=671922   Joint4=671921   GUID=7f7c39af-e36a-47fa-bbdd-01f44ba77ff2
   Area=229755   Joint1=671921   Joint2=671922   Joint3=671924   Joint4=671923   GUID=03f1f485-b14a-4cc2-a18b-a739b894dee0
   Area=229756   Joint1=671923   Joint2=671924   Joint3=671926   Joint4=671925   GUID=ae8c2937-6263-42cd-9da1-5618d5b2ac08
   Area=229757   Joint1=671925   Joint2=671926   Joint3=671943   Joint4=671981   GUID=f51d1200-fa5d-48ff-901b-e93395ab7c44
   Area=229758   Joint1=671941   Joint2=671942   Joint3=671927   Joint4=671914   GUID=c275d1fb-0b6c-4124-9045-d621d6182e15
   Area=229759   Joint1=671914   Joint2=671927   Joint3=671928   Joint4=671916   GUID=6f1e8f72-8a39-4176-b6c3-c45bc558f716
   Area=229760   Joint1=671916   Joint2=671928   Joint3=671929   Joint4=671918   GUID=2037bd65-c902-4bf6-afdb-743a639546a0
   Area=229761   Joint1=671918   Joint2=671929   Joint3=671930   Joint4=671920   GUID=333e1069-cd33-40ed-ae59-ee1f148ffc06
   Area=229762   Joint1=671920   Joint2=671930   Joint3=671931   Joint4=671922   GUID=157470e2-2aa3-4530-b520-22836ee41aab
   Area=229763   Joint1=671922   Joint2=671931   Joint3=671932   Joint4=671924   GUID=56c94f5b-7525-48cc-8c98-18e5e8e10020
   Area=229764   Joint1=671924   Joint2=671932   Joint3=671933   Joint4=671926   GUID=13086546-7594-4131-8c8b-30d5402c65e8
   Area=229765   Joint1=671926   Joint2=671933   Joint3=671944   Joint4=671943   GUID=85d58b16-181f-48d4-89ad-989f90100a55
   Area=229766   Joint1=671942   Joint2=671982   Joint3=671934   Joint4=671927   GUID=5075b813-f467-4019-94a6-40f626af3892
   Area=229767   Joint1=671927   Joint2=671934   Joint3=671935   Joint4=671928   GUID=3e4894e0-abef-4e19-bef4-5537ee6999c8
   Area=229768   Joint1=671928   Joint2=671935   Joint3=671936   Joint4=671929   GUID=13cb1a6c-07d8-46eb-aed7-8a9e8ad111b4
   Area=229769   Joint1=671929   Joint2=671936   Joint3=671937   Joint4=671930   GUID=0668418f-b321-4dda-ae9b-02e9dff2f031
   Area=229770   Joint1=671930   Joint2=671937   Joint3=671938   Joint4=671931   GUID=4864ad80-5b7d-4279-826b-de406949a39c
   Area=229771   Joint1=671931   Joint2=671938   Joint3=671939   Joint4=671932   GUID=f661c832-4a2b-479e-85e5-1e863ec71d7d
   Area=229772   Joint1=671932   Joint2=671939   Joint3=671940   Joint4=671933   GUID=fa8a38ec-1294-475b-a85e-d7d5e9d7779b
   Area=229773   Joint1=671933   Joint2=671940   Joint3=671983   Joint4=671944   GUID=a8db1ae3-2ee0-410a-9bab-e28272490168
 
TABLE:  "CONNECTIVITY - FRAME"
   Frame=752893   JointI=671913   JointJ=671914   IsCurved=No   GUID=e1d45661-0e81-4f48-971a-c4a94084510c
   Frame=752894   JointI=671915   JointJ=671916   IsCurved=No   GUID=a669b859-d069-47e9-81ae-54779a6bf7c0
   Frame=752895   JointI=671917   JointJ=671918   IsCurved=No   GUID=5b0eca86-6bc0-458a-a305-18fd135c527c
   Frame=752896   JointI=671919   JointJ=671920   IsCurved=No   GUID=446b776c-7e3c-4551-8a5f-6bf78c8ce954
   Frame=752897   JointI=671921   JointJ=671922   IsCurved=No   GUID=cf1b44e8-01b6-4577-8a77-bd716bb5c9a9
   Frame=752898   JointI=671923   JointJ=671924   IsCurved=No   GUID=61586c88-aa2f-480a-a4fe-c4ecf884c2a2
   Frame=752899   JointI=671925   JointJ=671926   IsCurved=No   GUID=e761063b-e179-45c8-a600-5ed539629238
   Frame=752900   JointI=671914   JointJ=671927   IsCurved=No   GUID=3588856a-1d9a-4c2f-b89c-7230c63455cb
   Frame=752901   JointI=671916   JointJ=671928   IsCurved=No   GUID=304d0bc5-7f76-46db-b3ef-71881a0a479e
   Frame=752902   JointI=671918   JointJ=671929   IsCurved=No   GUID=b98daddc-acd2-4000-aab2-447bebf9d7da
   Frame=752903   JointI=671920   JointJ=671930   IsCurved=No   GUID=167beb3a-e944-413e-85cf-1890f1f31d18
   Frame=752904   JointI=671922   JointJ=671931   IsCurved=No   GUID=97dbfccc-1065-4d7f-badf-d968ceb40430
   Frame=752905   JointI=671924   JointJ=671932   IsCurved=No   GUID=a745dc83-40de-471c-827c-062998e774ce
   Frame=752906   JointI=671926   JointJ=671933   IsCurved=No   GUID=dcfe153f-9b93-47b1-81e9-67f9fe0dbfa4
   Frame=752907   JointI=671927   JointJ=671934   IsCurved=No   GUID=868b5a25-5d4c-45ee-ac49-d471ccb3e251
   Frame=752908   JointI=671928   JointJ=671935   IsCurved=No   GUID=48fc65c8-cbeb-405c-8613-a47b0e1efbcd
   Frame=752909   JointI=671929   JointJ=671936   IsCurved=No   GUID=2f3299da-a6af-48d6-9ccb-8b6c7a29efad
   Frame=752910   JointI=671930   JointJ=671937   IsCurved=No   GUID=95d01e75-9f28-4028-8b79-fcbfb7a99013
   Frame=752911   JointI=671931   JointJ=671938   IsCurved=No   GUID=6047df08-eb04-44dc-893b-e0231f282bb0
   Frame=752912   JointI=671932   JointJ=671939   IsCurved=No   GUID=e21a1ea4-05ca-4a23-b52a-aaacb1a93355
   Frame=752913   JointI=671933   JointJ=671940   IsCurved=No   GUID=47fe62e5-2b34-4f1a-9600-25fadc09b521
   Frame=752914   JointI=671941   JointJ=671914   IsCurved=No   GUID=783cf9f1-46b2-45b8-88a9-3b7ea04844a5
   Frame=752915   JointI=671942   JointJ=671927   IsCurved=No   GUID=8eb3d2f2-f27f-456d-950e-84c848b95f37
   Frame=752916   JointI=671914   JointJ=671916   IsCurved=No   GUID=77d8d7ef-efa5-4d07-9f18-872758b453f8
   Frame=752917   JointI=671927   JointJ=671928   IsCurved=No   GUID=e830651f-f5dd-4e89-90a6-fa3dd0a4c30f
   Frame=752918   JointI=671916   JointJ=671918   IsCurved=No   GUID=98a45167-b334-446e-84f6-5ec76f2f7e0c
   Frame=752919   JointI=671928   JointJ=671929   IsCurved=No   GUID=3cfdea5b-9a27-46cc-b2fe-b41b380f0329
   Frame=752920   JointI=671918   JointJ=671920   IsCurved=No   GUID=f9541f5d-d27f-49d5-9b7d-e85f5293fd70
   Frame=752921   JointI=671929   JointJ=671930   IsCurved=No   GUID=abf368f6-05ef-45af-9a39-2c6c754511ac
   Frame=752922   JointI=671920   JointJ=671922   IsCurved=No   GUID=85d79f83-1843-4375-b528-67030f7bd274
   Frame=752923   JointI=671930   JointJ=671931   IsCurved=No   GUID=83744e21-ab37-430a-9691-d49e85b26693
   Frame=752924   JointI=671922   JointJ=671924   IsCurved=No   GUID=3976c2a7-2b0e-4608-a4b0-911327954650
   Frame=752925   JointI=671931   JointJ=671932   IsCurved=No   GUID=c6932be2-4a85-4b06-bf8e-863a1aa8b9d8
   Frame=752926   JointI=671924   JointJ=671926   IsCurved=No   GUID=ca9a10ae-8486-4bf6-bc6b-d8cc4272aa98
   Frame=752927   JointI=671932   JointJ=671933   IsCurved=No   GUID=ac120b61-c6b7-4c94-8f07-656c86cc0358
   Frame=752928   JointI=671926   JointJ=671943   IsCurved=No   GUID=b39aee18-55ad-4a22-aaf8-6f72f84e59ff
   Frame=752929   JointI=671933   JointJ=671944   IsCurved=No   GUID=0d76b46a-22be-4431-8fff-5fda516279f8
   Frame=752930   JointI=671914   JointJ=671945   IsCurved=No   GUID=0933c4a2-f18f-4a27-9009-b2c6a6b8b9b9
   Frame=752931   JointI=671945   JointJ=671946   IsCurved=No   GUID=384524ee-5129-4461-9ead-9788c11de4f4
   Frame=752932   JointI=671946   JointJ=671947   IsCurved=No   GUID=3ee1638f-89aa-43ac-ba05-73a0ff286a27
   Frame=752933   JointI=671916   JointJ=671948   IsCurved=No   GUID=ce16d399-5505-4712-bf01-69f6e210727f
   Frame=752934   JointI=671948   JointJ=671949   IsCurved=No   GUID=7c1c4ea3-a4cc-4731-95fd-56e7872d1ac5
   Frame=752935   JointI=671949   JointJ=671950   IsCurved=No   GUID=e375474f-bca0-4203-b2e5-641d1b1b4643
   Frame=752936   JointI=671918   JointJ=671951   IsCurved=No   GUID=116a20e7-2ede-4b83-b043-b8f4dcbaf894
   Frame=752937   JointI=671951   JointJ=671952   IsCurved=No   GUID=1e8938c0-5065-477b-8324-c42cb305ad92
   Frame=752938   JointI=671952   JointJ=671953   IsCurved=No   GUID=6b179e9c-7007-4f15-b9d5-fc5e7b520c88
   Frame=752939   JointI=671920   JointJ=671954   IsCurved=No   GUID=7ed0fdd6-e9b8-4aa0-a53a-0747ddd14519
   Frame=752940   JointI=671954   JointJ=671955   IsCurved=No   GUID=11ea56ca-ba41-4776-a2c8-17f0abf96396
   Frame=752941   JointI=671955   JointJ=671956   IsCurved=No   GUID=dd9b22a1-1fd5-4dc3-9dbe-64deb0142d92
   Frame=752942   JointI=671922   JointJ=671957   IsCurved=No   GUID=da7488f7-2b0b-4b48-aa41-c1a2ffdffb13
   Frame=752943   JointI=671957   JointJ=671958   IsCurved=No   GUID=376f6562-e3ce-4027-aff4-13366e66e2a8
   Frame=752944   JointI=671958   JointJ=671959   IsCurved=No   GUID=94d03e35-1016-40ef-bdc9-d4fe488e7129
   Frame=752945   JointI=671924   JointJ=671960   IsCurved=No   GUID=b807dc34-1b43-4e93-ad39-af1b30452562
   Frame=752946   JointI=671960   JointJ=671961   IsCurved=No   GUID=4b5abba6-89d2-4da2-a6e0-7ea5dfaacba5
   Frame=752947   JointI=671961   JointJ=671962   IsCurved=No   GUID=5847aff8-2e91-49d3-aa16-d8b89f9c2d8f
   Frame=752948   JointI=671926   JointJ=671963   IsCurved=No   GUID=5bee083c-ab91-4589-99c7-2c863e3cdcdd
   Frame=752949   JointI=671963   JointJ=671964   IsCurved=No   GUID=79c37363-e2af-4a1c-b3b9-99af6a791426
   Frame=752950   JointI=671964   JointJ=671965   IsCurved=No   GUID=fd8f7531-27c6-46bd-bc25-804ce1b7f765
   Frame=752951   JointI=671927   JointJ=671966   IsCurved=No   GUID=50486933-284d-487d-b53f-549cd3a099c7
   Frame=752952   JointI=671966   JointJ=671967   IsCurved=No   GUID=4200eac2-f1eb-4573-9228-3448ea14143a
   Frame=752953   JointI=671928   JointJ=671968   IsCurved=No   GUID=73f6b8a2-c214-4564-be10-867e580c0726
   Frame=752954   JointI=671968   JointJ=671969   IsCurved=No   GUID=281d9cc8-2b23-4871-8404-a8ab7a663b22
   Frame=752955   JointI=671929   JointJ=671970   IsCurved=No   GUID=f8789e8a-453e-4755-bb9c-6bc8d02b692f
   Frame=752956   JointI=671970   JointJ=671971   IsCurved=No   GUID=0d41788a-97ee-4cce-92a1-6c67b2dd9216
   Frame=752957   JointI=671930   JointJ=671972   IsCurved=No   GUID=54b5c10d-f224-41fc-b100-901febd61082
   Frame=752958   JointI=671972   JointJ=671973   IsCurved=No   GUID=2e212466-1b60-4a5f-93ab-3c535b43f1e9
   Frame=752959   JointI=671931   JointJ=671974   IsCurved=No   GUID=497c5319-981d-4537-a024-c891ab145a36
   Frame=752960   JointI=671974   JointJ=671975   IsCurved=No   GUID=ac39e107-9281-403e-b2cd-bc1aaa96244d
   Frame=752961   JointI=671932   JointJ=671976   IsCurved=No   GUID=0f76783e-9778-4653-a415-99619e1a840b
   Frame=752962   JointI=671976   JointJ=671977   IsCurved=No   GUID=9f27369d-4433-4d91-b583-6eb0bdeabd7e
   Frame=752963   JointI=671933   JointJ=671978   IsCurved=No   GUID=4e1fc5a5-37bc-4fea-86fe-bdf9b64c2e68
   Frame=752964   JointI=671978   JointJ=671979   IsCurved=No   GUID=4e90bc25-0207-420c-abb9-b9e0171a97f1
   Frame=752965   JointI=671945   JointJ=671948   IsCurved=No   GUID=3185b607-ab27-4f18-967c-75cfd26197a7
   Frame=752966   JointI=671948   JointJ=671951   IsCurved=No   GUID=c08b0a7e-d246-4140-ba99-8189343ec790
   Frame=752967   JointI=671951   JointJ=671954   IsCurved=No   GUID=3359deff-67fb-4399-8e13-80654e42322a
   Frame=752968   JointI=671954   JointJ=671957   IsCurved=No   GUID=d29838bc-073b-4fb1-9fca-6bdf20b27de4
   Frame=752969   JointI=671957   JointJ=671960   IsCurved=No   GUID=211f619a-13c5-45e7-ba70-c5f9fae9dcf2
   Frame=752970   JointI=671960   JointJ=671963   IsCurved=No   GUID=33d50733-92d9-40b5-be28-a8a6c71c0074
 
TABLE:  "COORDINATE SYSTEMS"
   Name=GLOBAL   Type=Cartesian   X=0   Y=0   Z=0   AboutZ=0   AboutY=0   AboutX=0
 
TABLE:  "DATABASE DOCUMENTATION"
 
TABLE:  "DATABASE FORMAT TYPES"
   UnitsCurr=Yes   OverrideE=No
 
TABLE:  "FRAME AUTO MESH ASSIGNMENTS"
   Frame=752893   AutoMesh=Yes   AtJoints=Yes   AtFrames=No   NumSegments=0   MaxLength=0   MaxDegrees=0
   Frame=752894   AutoMesh=Yes   AtJoints=Yes   AtFrames=No   NumSegments=0   MaxLength=0   MaxDegrees=0
   Frame=752895   AutoMesh=Yes   AtJoints=Yes   AtFrames=No   NumSegments=0   MaxLength=0   MaxDegrees=0
   Frame=752896   AutoMesh=Yes   AtJoints=Yes   AtFrames=No   NumSegments=0   MaxLength=0   MaxDegrees=0
   Frame=752897   AutoMesh=Yes   AtJoints=Yes   AtFrames=No   NumSegments=0   MaxLength=0   MaxDegrees=0
   Frame=752898   AutoMesh=Yes   AtJoints=Yes   AtFrames=No   NumSegments=0   MaxLength=0   MaxDegrees=0
   Frame=752899   AutoMesh=Yes   AtJoints=Yes   AtFrames=No   NumSegments=0   MaxLength=0   MaxDegrees=0
   Frame=752900   AutoMesh=Yes   AtJoints=Yes   AtFrames=No   NumSegments=0   MaxLength=0   MaxDegrees=0
   Frame=752901   AutoMesh=Yes   AtJoints=Yes   AtFrames=No   NumSegments=0   MaxLength=0   MaxDegrees=0
   Frame=752902   AutoMesh=Yes   AtJoints=Yes   AtFrames=No   NumSegments=0   MaxLength=0   MaxDegrees=0
   Frame=752903   AutoMesh=Yes   AtJoints=Yes   AtFrames=No   NumSegments=0   MaxLength=0   MaxDegrees=0
   Frame=752904   AutoMesh=Yes   AtJoints=Yes   AtFrames=No   NumSegments=0   MaxLength=0   MaxDegrees=0
   Frame=752905   AutoMesh=Yes   AtJoints=Yes   AtFrames=No   NumSegments=0   MaxLength=0   MaxDegrees=0
   Frame=752906   AutoMesh=Yes   AtJoints=Yes   AtFrames=No   NumSegments=0   MaxLength=0   MaxDegrees=0
   Frame=752907   AutoMesh=Yes   AtJoints=Yes   AtFrames=No   NumSegments=0   MaxLength=0   MaxDegrees=0
   Frame=752908   AutoMesh=Yes   AtJoints=Yes   AtFrames=No   NumSegments=0   MaxLength=0   MaxDegrees=0
   Frame=752909   AutoMesh=Yes   AtJoints=Yes   AtFrames=No   NumSegments=0   MaxLength=0   MaxDegrees=0
   Frame=752910   AutoMesh=Yes   AtJoints=Yes   AtFrames=No   NumSegments=0   MaxLength=0   MaxDegrees=0
   Frame=752911   AutoMesh=Yes   AtJoints=Yes   AtFrames=No   NumSegments=0   MaxLength=0   MaxDegrees=0
   Frame=752912   AutoMesh=Yes   AtJoints=Yes   AtFrames=No   NumSegments=0   MaxLength=0   MaxDegrees=0
# ... 58 like lines cut
 
TABLE:  "FRAME DESIGN PROCEDURES"
   Frame=752893   DesignProc="From Material"
   Frame=752894   DesignProc="From Material"
   Frame=752895   DesignProc="From Material"
   Frame=752896   DesignProc="From Material"
   Frame=752897   DesignProc="From Material"
   Frame=752898   DesignProc="From Material"
   Frame=752899   DesignProc="From Material"
   Frame=752900   DesignProc="From Material"
   Frame=752901   DesignProc="From Material"
   Frame=752902   DesignProc="From Material"
   Frame=752903   DesignProc="From Material"
   Frame=752904   DesignProc="From Material"
   Frame=752905   DesignProc="From Material"
   Frame=752906   DesignProc="From Material"
   Frame=752907   DesignProc="From Material"
   Frame=752908   DesignProc="From Material"
   Frame=752909   DesignProc="From Material"
   Frame=752910   DesignProc="From Material"
   Frame=752911   DesignProc="From Material"
   Frame=752912   DesignProc="From Material"
# ... 18 like lines cut
   Frame=752931   DesignProc="No Design"
   Frame=752932   DesignProc="No Design"
   Frame=752933   DesignProc="From Material"
   Frame=752934   DesignProc="No Design"
   Frame=752935   DesignProc="No Design"
   Frame=752936   DesignProc="From Material"
   Frame=752937   DesignProc="No Design"
   Frame=752938   DesignProc="No Design"
   Frame=752939   DesignProc="From Material"
   Frame=752940   DesignProc="No Design"
   Frame=752941   DesignProc="No Design"
   Frame=752942   DesignProc="From Material"
   Frame=752943   DesignProc="No Design"
   Frame=752944   DesignProc="No Design"
   Frame=752945   DesignProc="From Material"
   Frame=752946   DesignProc="No Design"
   Frame=752947   DesignProc="No Design"
   Frame=752948   DesignProc="From Material"
   Frame=752949   DesignProc="No Design"
   Frame=752950   DesignProc="No Design"
   Frame=752951   DesignProc="No Design"
   Frame=752952   DesignProc="No Design"
   Frame=752953   DesignProc="No Design"
   Frame=752954   DesignProc="No Design"
   Frame=752955   DesignProc="No Design"
   Frame=752956   DesignProc="No Design"
   Frame=752957   DesignProc="No Design"
   Frame=752958   DesignProc="No Design"
   Frame=752959   DesignProc="No Design"
   Frame=752960   DesignProc="No Design"
   Frame=752961   DesignProc="No Design"
   Frame=752962   DesignProc="No Design"
   Frame=752963   DesignProc="No Design"
   Frame=752964   DesignProc="No Design"
   Frame=752965   DesignProc="From Material"
   Frame=752966   DesignProc="From Material"
   Frame=752967   DesignProc="From Material"
   Frame=752968   DesignProc="From Material"
   Frame=752969   DesignProc="From Material"
   Frame=752970   DesignProc="From Material"
 
TABLE:  "FRAME LOAD TRANSFER OPTIONS"
   Frame=752893   Transfer=Yes
   Frame=752894   Transfer=Yes
   Frame=752895   Transfer=Yes
   Frame=752896   Transfer=Yes
   Frame=752897   Transfer=Yes
   Frame=752898   Transfer=Yes
   Frame=752899   Transfer=Yes
   Frame=752900   Transfer=Yes
   Frame=752901   Transfer=Yes
   Frame=752902   Transfer=Yes
   Frame=752903   Transfer=Yes
   Frame=752904   Transfer=Yes
   Frame=752905   Transfer=Yes
   Frame=752906   Transfer=Yes
   Frame=752907   Transfer=Yes
   Frame=752908   Transfer=Yes
   Frame=752909   Transfer=Yes
   Frame=752910   Transfer=Yes
   Frame=752911   Transfer=Yes
   Frame=752912   Transfer=Yes
# ... 58 like lines cut
 
TABLE:  "FRAME LOCAL AXES ASSIGNMENTS 1 - TYPICAL"
   Frame=752930   Angle=90
   Frame=752933   Angle=90
   Frame=752936   Angle=90
   Frame=752939   Angle=90
   Frame=752942   Angle=90
   Frame=752945   Angle=90
   Frame=752948   Angle=90
 
TABLE:  "FRAME OUTPUT STATION ASSIGNMENTS"
   Frame=752893   StationType=MaxStaSpcg   MaxStaSpcg=0.5   AddAtElmInt=Yes   AddAtPtLoad=Yes
   Frame=752894   StationType=MaxStaSpcg   MaxStaSpcg=0.5   AddAtElmInt=Yes   AddAtPtLoad=Yes
   Frame=752895   StationType=MaxStaSpcg   MaxStaSpcg=0.5   AddAtElmInt=Yes   AddAtPtLoad=Yes
   Frame=752896   StationType=MaxStaSpcg   MaxStaSpcg=0.5   AddAtElmInt=Yes   AddAtPtLoad=Yes
   Frame=752897   StationType=MaxStaSpcg   MaxStaSpcg=0.5   AddAtElmInt=Yes   AddAtPtLoad=Yes
   Frame=752898   StationType=MaxStaSpcg   MaxStaSpcg=0.5   AddAtElmInt=Yes   AddAtPtLoad=Yes
   Frame=752899   StationType=MaxStaSpcg   MaxStaSpcg=0.5   AddAtElmInt=Yes   AddAtPtLoad=Yes
   Frame=752900   StationType=MaxStaSpcg   MaxStaSpcg=0.5   AddAtElmInt=Yes   AddAtPtLoad=Yes
   Frame=752901   StationType=MaxStaSpcg   MaxStaSpcg=0.5   AddAtElmInt=Yes   AddAtPtLoad=Yes
   Frame=752902   StationType=MaxStaSpcg   MaxStaSpcg=0.5   AddAtElmInt=Yes   AddAtPtLoad=Yes
   Frame=752903   StationType=MaxStaSpcg   MaxStaSpcg=0.5   AddAtElmInt=Yes   AddAtPtLoad=Yes
   Frame=752904   StationType=MaxStaSpcg   MaxStaSpcg=0.5   AddAtElmInt=Yes   AddAtPtLoad=Yes
   Frame=752905   StationType=MaxStaSpcg   MaxStaSpcg=0.5   AddAtElmInt=Yes   AddAtPtLoad=Yes
   Frame=752906   StationType=MaxStaSpcg   MaxStaSpcg=0.5   AddAtElmInt=Yes   AddAtPtLoad=Yes
   Frame=752907   StationType=MaxStaSpcg   MaxStaSpcg=0.5   AddAtElmInt=Yes   AddAtPtLoad=Yes
   Frame=752908   StationType=MaxStaSpcg   MaxStaSpcg=0.5   AddAtElmInt=Yes   AddAtPtLoad=Yes
   Frame=752909   StationType=MaxStaSpcg   MaxStaSpcg=0.5   AddAtElmInt=Yes   AddAtPtLoad=Yes
   Frame=752910   StationType=MaxStaSpcg   MaxStaSpcg=0.5   AddAtElmInt=Yes   AddAtPtLoad=Yes
   Frame=752911   StationType=MaxStaSpcg   MaxStaSpcg=0.5   AddAtElmInt=Yes   AddAtPtLoad=Yes
   Frame=752912   StationType=MaxStaSpcg   MaxStaSpcg=0.5   AddAtElmInt=Yes   AddAtPtLoad=Yes
# ... 17 like lines cut
   Frame=752930   StationType=MinNumSta   MinNumSta=3   AddAtElmInt=Yes   AddAtPtLoad=Yes
   Frame=752931   StationType=MinNumSta   MinNumSta=3   AddAtElmInt=Yes   AddAtPtLoad=Yes
   Frame=752932   StationType=MinNumSta   MinNumSta=3   AddAtElmInt=Yes   AddAtPtLoad=Yes
   Frame=752933   StationType=MinNumSta   MinNumSta=3   AddAtElmInt=Yes   AddAtPtLoad=Yes
   Frame=752934   StationType=MinNumSta   MinNumSta=3   AddAtElmInt=Yes   AddAtPtLoad=Yes
   Frame=752935   StationType=MinNumSta   MinNumSta=3   AddAtElmInt=Yes   AddAtPtLoad=Yes
   Frame=752936   StationType=MinNumSta   MinNumSta=3   AddAtElmInt=Yes   AddAtPtLoad=Yes
   Frame=752937   StationType=MinNumSta   MinNumSta=3   AddAtElmInt=Yes   AddAtPtLoad=Yes
   Frame=752938   StationType=MinNumSta   MinNumSta=3   AddAtElmInt=Yes   AddAtPtLoad=Yes
   Frame=752939   StationType=MinNumSta   MinNumSta=3   AddAtElmInt=Yes   AddAtPtLoad=Yes
   Frame=752940   StationType=MinNumSta   MinNumSta=3   AddAtElmInt=Yes   AddAtPtLoad=Yes
   Frame=752941   StationType=MinNumSta   MinNumSta=3   AddAtElmInt=Yes   AddAtPtLoad=Yes
   Frame=752942   StationType=MinNumSta   MinNumSta=3   AddAtElmInt=Yes   AddAtPtLoad=Yes
   Frame=752943   StationType=MinNumSta   MinNumSta=3   AddAtElmInt=Yes   AddAtPtLoad=Yes
   Frame=752944   StationType=MinNumSta   MinNumSta=3   AddAtElmInt=Yes   AddAtPtLoad=Yes
   Frame=752945   StationType=MinNumSta   MinNumSta=3   AddAtElmInt=Yes   AddAtPtLoad=Yes
   Frame=752946   StationType=MinNumSta   MinNumSta=3   AddAtElmInt=Yes   AddAtPtLoad=Yes
   Frame=752947   StationType=MinNumSta   MinNumSta=3   AddAtElmInt=Yes   AddAtPtLoad=Yes
   Frame=752948   StationType=MinNumSta   MinNumSta=3   AddAtElmInt=Yes   AddAtPtLoad=Yes
   Frame=752949   StationType=MinNumSta   MinNumSta=3   AddAtElmInt=Yes   AddAtPtLoad=Yes
# ... 15 like lines cut
   Frame=752965   StationType=MaxStaSpcg   MaxStaSpcg=0.5   AddAtElmInt=Yes   AddAtPtLoad=Yes
   Frame=752966   StationType=MaxStaSpcg   MaxStaSpcg=0.5   AddAtElmInt=Yes   AddAtPtLoad=Yes
   Frame=752967   StationType=MaxStaSpcg   MaxStaSpcg=0.5   AddAtElmInt=Yes   AddAtPtLoad=Yes
   Frame=752968   StationType=MaxStaSpcg   MaxStaSpcg=0.5   AddAtElmInt=Yes   AddAtPtLoad=Yes
   Frame=752969   StationType=MaxStaSpcg   MaxStaSpcg=0.5   AddAtElmInt=Yes   AddAtPtLoad=Yes
   Frame=752970   StationType=MaxStaSpcg   MaxStaSpcg=0.5   AddAtElmInt=Yes   AddAtPtLoad=Yes
 
TABLE:  "FRAME SECTION ASSIGNMENTS"
   Frame=752893   AutoSelect=N.A.   AnalSect=TB   MatProp=Default
   Frame=752894   AutoSelect=N.A.   AnalSect=TB   MatProp=Default
   Frame=752895   AutoSelect=N.A.   AnalSect=TB   MatProp=Default
   Frame=752896   AutoSelect=N.A.   AnalSect=TB   MatProp=Default
   Frame=752897   AutoSelect=N.A.   AnalSect=TB   MatProp=Default
   Frame=752898   AutoSelect=N.A.   AnalSect=TB   MatProp=Default
   Frame=752899   AutoSelect=N.A.   AnalSect=TB   MatProp=Default
   Frame=752900   AutoSelect=N.A.   AnalSect=TB   MatProp=Default
   Frame=752901   AutoSelect=N.A.   AnalSect=TB   MatProp=Default
   Frame=752902   AutoSelect=N.A.   AnalSect=TB   MatProp=Default
   Frame=752903   AutoSelect=N.A.   AnalSect=TB   MatProp=Default
   Frame=752904   AutoSelect=N.A.   AnalSect=TB   MatProp=Default
   Frame=752905   AutoSelect=N.A.   AnalSect=TB   MatProp=Default
   Frame=752906   AutoSelect=N.A.   AnalSect=TB   MatProp=Default
   Frame=752907   AutoSelect=N.A.   AnalSect=TB   MatProp=Default
   Frame=752908   AutoSelect=N.A.   AnalSect=TB   MatProp=Default
   Frame=752909   AutoSelect=N.A.   AnalSect=TB   MatProp=Default
   Frame=752910   AutoSelect=N.A.   AnalSect=TB   MatProp=Default
   Frame=752911   AutoSelect=N.A.   AnalSect=TB   MatProp=Default
   Frame=752912   AutoSelect=N.A.   AnalSect=TB   MatProp=Default
   Frame=752913   AutoSelect=N.A.   AnalSect=TB   MatProp=Default
   Frame=752914   AutoSelect=N.A.   AnalSect=LB   MatProp=Default
   Frame=752915   AutoSelect=N.A.   AnalSect=LB   MatProp=Default
   Frame=752916   AutoSelect=N.A.   AnalSect=LB   MatProp=Default
   Frame=752917   AutoSelect=N.A.   AnalSect=LB   MatProp=Default
   Frame=752918   AutoSelect=N.A.   AnalSect=LB   MatProp=Default
   Frame=752919   AutoSelect=N.A.   AnalSect=LB   MatProp=Default
   Frame=752920   AutoSelect=N.A.   AnalSect=LB   MatProp=Default
   Frame=752921   AutoSelect=N.A.   AnalSect=LB   MatProp=Default
   Frame=752922   AutoSelect=N.A.   AnalSect=LB   MatProp=Default
   Frame=752923   AutoSelect=N.A.   AnalSect=LB   MatProp=Default
   Frame=752924   AutoSelect=N.A.   AnalSect=LB   MatProp=Default
   Frame=752925   AutoSelect=N.A.   AnalSect=LB   MatProp=Default
   Frame=752926   AutoSelect=N.A.   AnalSect=LB   MatProp=Default
   Frame=752927   AutoSelect=N.A.   AnalSect=LB   MatProp=Default
   Frame=752928   AutoSelect=N.A.   AnalSect=LB   MatProp=Default
   Frame=752929   AutoSelect=N.A.   AnalSect=LB   MatProp=Default
   Frame=752930   AutoSelect=N.A.   AnalSect=EB   MatProp=Default
   Frame=752931   AutoSelect=N.A.   AnalSect=Piles   MatProp=Default
   Frame=752932   AutoSelect=N.A.   AnalSect=Piles   MatProp=Default
   Frame=752933   AutoSelect=N.A.   AnalSect=EB   MatProp=Default
   Frame=752934   AutoSelect=N.A.   AnalSect=Piles   MatProp=Default
   Frame=752935   AutoSelect=N.A.   AnalSect=Piles   MatProp=Default
   Frame=752936   AutoSelect=N.A.   AnalSect=EB   MatProp=Default
   Frame=752937   AutoSelect=N.A.   AnalSect=Piles   MatProp=Default
   Frame=752938   AutoSelect=N.A.   AnalSect=Piles   MatProp=Default
   Frame=752939   AutoSelect=N.A.   AnalSect=EB   MatProp=Default
   Frame=752940   AutoSelect=N.A.   AnalSect=Piles   MatProp=Default
   Frame=752941   AutoSelect=N.A.   AnalSect=Piles   MatProp=Default
   Frame=752942   AutoSelect=N.A.   AnalSect=EB   MatProp=Default
   Frame=752943   AutoSelect=N.A.   AnalSect=Piles   MatProp=Default
   Frame=752944   AutoSelect=N.A.   AnalSect=Piles   MatProp=Default
   Frame=752945   AutoSelect=N.A.   AnalSect=EB   MatProp=Default
   Frame=752946   AutoSelect=N.A.   AnalSect=Piles   MatProp=Default
   Frame=752947   AutoSelect=N.A.   AnalSect=Piles   MatProp=Default
   Frame=752948   AutoSelect=N.A.   AnalSect=EB   MatProp=Default
   Frame=752949   AutoSelect=N.A.   AnalSect=Piles   MatProp=Default
   Frame=752950   AutoSelect=N.A.   AnalSect=Piles   MatProp=Default
   Frame=752951   AutoSelect=N.A.   AnalSect=Piles   MatProp=Default
   Frame=752952   AutoSelect=N.A.   AnalSect=Piles   MatProp=Default
   Frame=752953   AutoSelect=N.A.   AnalSect=Piles   MatProp=Default
   Frame=752954   AutoSelect=N.A.   AnalSect=Piles   MatProp=Default
   Frame=752955   AutoSelect=N.A.   AnalSect=Piles   MatProp=Default
   Frame=752956   AutoSelect=N.A.   AnalSect=Piles   MatProp=Default
   Frame=752957   AutoSelect=N.A.   AnalSect=Piles   MatProp=Default
   Frame=752958   AutoSelect=N.A.   AnalSect=Piles   MatProp=Default
   Frame=752959   AutoSelect=N.A.   AnalSect=Piles   MatProp=Default
   Frame=752960   AutoSelect=N.A.   AnalSect=Piles   MatProp=Default
   Frame=752961   AutoSelect=N.A.   AnalSect=Piles   MatProp=Default
   Frame=752962   AutoSelect=N.A.   AnalSect=Piles   MatProp=Default
   Frame=752963   AutoSelect=N.A.   AnalSect=Piles   MatProp=Default
   Frame=752964   AutoSelect=N.A.   AnalSect=Piles   MatProp=Default
   Frame=752965   AutoSelect=N.A.   AnalSect=EB-1   MatProp=Default
   Frame=752966   AutoSelect=N.A.   AnalSect=EB-1   MatProp=Default
   Frame=752967   AutoSelect=N.A.   AnalSect=EB-1   MatProp=Default
   Frame=752968   AutoSelect=N.A.   AnalSect=EB-1   MatProp=Default
   Frame=752969   AutoSelect=N.A.   AnalSect=EB-1   MatProp=Default
   Frame=752970   AutoSelect=N.A.   AnalSect=EB-1   MatProp=Default
 
TABLE:  "FRAME SECTION PROPERTIES 01 - GENERAL"
   SectionName=EB   Material=BTCT   Shape=Rectangular   t3=1.2   t2=0.5   Area=0.6   TorsConst=0.0369079665195795   I33=0.072   I22=0.0125   I23=0   AS2=0.5   AS3=0.5   S33Top=0.12   S33Bot=0.12   S22Left=0.05   S22Right=0.05   Z33=0.18 _
        Z22=0.075   R33=0.346410161513775   R22=0.144337567297406   CGOffset3=0   CGOffset2=0   EccV2=0   EccV3=0   Cw=0   Color=Cyan   FromFile=No   AMod=1   A2Mod=1   A3Mod=1   JMod=1   I2Mod=1   I3Mod=1   MMod=1   WMod=1
   SectionName=EB-1   Material=BTCT   Shape=Rectangular   t3=0.5   t2=0.5   Area=0.25   TorsConst=0.00880208333333333   I33=0.00520833333333333   I22=0.00520833333333333   I23=0   AS2=0.208333333333333   AS3=0.208333333333333 _
        S33Top=0.0208333333333333   S33Bot=0.0208333333333333   S22Left=0.0208333333333333   S22Right=0.0208333333333333   Z33=0.03125   Z22=0.03125   R33=0.144337567297406   R22=0.144337567297406   CGOffset3=0   CGOffset2=0   EccV2=0 _
        EccV3=0   Cw=0   Color=Red   FromFile=No   AMod=1   A2Mod=1   A3Mod=1   JMod=1   I2Mod=1   I3Mod=1   MMod=1   WMod=1
   SectionName=LB   Material=BTCT   Shape=Rectangular   t3=0.5   t2=0.5   Area=0.25   TorsConst=0.00880208333333333   I33=0.00520833333333333   I22=0.00520833333333333   I23=0   AS2=0.208333333333333   AS3=0.208333333333333 _
        S33Top=0.0208333333333333   S33Bot=0.0208333333333333   S22Left=0.0208333333333333   S22Right=0.0208333333333333   Z33=0.03125   Z22=0.03125   R33=0.144337567297406   R22=0.144337567297406   CGOffset3=0   CGOffset2=0   EccV2=0 _
        EccV3=0   Cw=0   Color=Green   FromFile=No   AMod=1   A2Mod=1   A3Mod=1   JMod=1   I2Mod=1   I3Mod=1   MMod=1   WMod=1
   SectionName=Piles   Material=BTCTCOC   Shape=Pipe   t3=0.3   tw=0.06   Area=0.045238934211693   TorsConst=0.000692155693438903   I33=0.000346077846719452   I22=0.000346077846719452   I23=0   AS2=0.0235427106611872 _
        AS3=0.0235427106611872   S33Top=0.00230718564479634   S33Bot=0.00230718564479634   S22Left=0.00230718564479634   S22Right=0.00230718564479634   Z33=0.003528   Z22=0.003528   R33=0.0874642784226795   R22=0.0874642784226795 _
        CGOffset3=0   CGOffset2=0   EccV2=0   EccV3=0   Cw=0   Color=Magenta   FromFile=No   AMod=1   A2Mod=1   A3Mod=1   JMod=1   I2Mod=1   I3Mod=1   MMod=1   WMod=1
   SectionName=TB   Material=BTCT   Shape=Rectangular   t3=0.5   t2=0.5   Area=0.25   TorsConst=0.00880208333333333   I33=0.00520833333333333   I22=0.00520833333333333   I23=0   AS2=0.208333333333333   AS3=0.208333333333333 _
        S33Top=0.0208333333333333   S33Bot=0.0208333333333333   S22Left=0.0208333333333333   S22Right=0.0208333333333333   Z33=0.03125   Z22=0.03125   R33=0.144337567297406   R22=0.144337567297406   CGOffset3=0   CGOffset2=0   EccV2=0 _
        EccV3=0   Cw=0   Color=Blue   FromFile=No   AMod=1   A2Mod=1   A3Mod=1   JMod=1   I2Mod=1   I3Mod=1   MMod=1   WMod=1
 
TABLE:  "FRAME SECTION PROPERTIES 02 - CONCRETE COLUMN"
   SectionName=EB   RebarMatL=A706   RebarMatC=A706   ReinfConfig=Rectangular   LatReinf=Ties   Cover=0.05   NumBars3Dir=2   NumBars2Dir=2   BarSizeL=12d   BarSizeC=10d   SpacingC=0.1   NumCBars2=2   NumCBars3=2   ReinfType=Design
   SectionName=EB-1   RebarMatL=A706   RebarMatC=A706   ReinfConfig=Rectangular   LatReinf=Ties   Cover=0.05   NumBars3Dir=2   NumBars2Dir=2   BarSizeL=12d   BarSizeC=10d   SpacingC=0.1   NumCBars2=2   NumCBars3=2   ReinfType=Design
   SectionName=LB   RebarMatL=A706   RebarMatC=A706   ReinfConfig=Rectangular   LatReinf=Ties   Cover=0.05   NumBars3Dir=2   NumBars2Dir=2   BarSizeL=12d   BarSizeC=10d   SpacingC=0.1   NumCBars2=2   NumCBars3=2   ReinfType=Design
   SectionName=TB   RebarMatL=A706   RebarMatC=A706   ReinfConfig=Rectangular   LatReinf=Ties   Cover=0.05   NumBars3Dir=2   NumBars2Dir=2   BarSizeL=12d   BarSizeC=10d   SpacingC=0.1   NumCBars2=2   NumCBars3=2   ReinfType=Design
 
TABLE:  "FRAME SECTION PROPERTIES 13 - TIME DEPENDENT"
   SectionName=EB   TypeSize=Auto   AutoSFSize=1
   SectionName=EB-1   TypeSize=Auto   AutoSFSize=1
   SectionName=LB   TypeSize=Auto   AutoSFSize=1
   SectionName=Piles   TypeSize=Auto   AutoSFSize=1
   SectionName=TB   TypeSize=Auto   AutoSFSize=1
 
TABLE:  "FUNCTION - PLOT FUNCTIONS"
   PlotFunc="Input Energy"   Type=Energy   Component=Input   Mode=All
 
TABLE:  "FUNCTION - POWER SPECTRAL DENSITY - USER"
   Name=UNIFPSD   Frequency=0   Value=1
   Name=UNIFPSD   Frequency=1   Value=1
 
TABLE:  "FUNCTION - RESPONSE SPECTRUM - USER"
   Name=UNIFRS   Period=0   Accel=1   FuncDamp=0.05
   Name=UNIFRS   Period=1   Accel=1
 
TABLE:  "FUNCTION - STEADY STATE - USER"
   Name=UNIFSS   Frequency=0   Value=1
   Name=UNIFSS   Frequency=1   Value=1
 
TABLE:  "FUNCTION - TIME HISTORY - USER"
   Name=RAMPTH   Time=0   Value=0
   Name=RAMPTH   Time=1   Value=1
   Name=RAMPTH   Time=4   Value=1
   Name=UNIFTH   Time=0   Value=1
   Name=UNIFTH   Time=1   Value=1
 
TABLE:  "GRID LINES"
   CoordSys=GLOBAL   AxisDir=X   GridID=A   XRYZCoord=-10   LineType=Primary   LineColor=Gray8Dark   Visible=Yes   BubbleLoc=End   AllVisible=Yes   BubbleSize=0.9375
   CoordSys=GLOBAL   AxisDir=X   GridID=B   XRYZCoord=-9   LineType=Primary   LineColor=Gray8Dark   Visible=Yes   BubbleLoc=End
   CoordSys=GLOBAL   AxisDir=X   GridID=C   XRYZCoord=-4.5   LineType=Primary   LineColor=Gray8Dark   Visible=Yes   BubbleLoc=End
   CoordSys=GLOBAL   AxisDir=X   GridID=D   XRYZCoord=0   LineType=Primary   LineColor=Gray8Dark   Visible=Yes   BubbleLoc=End
   CoordSys=GLOBAL   AxisDir=X   GridID=E   XRYZCoord=4.5   LineType=Primary   LineColor=Gray8Dark   Visible=Yes   BubbleLoc=End
   CoordSys=GLOBAL   AxisDir=X   GridID=F   XRYZCoord=9   LineType=Primary   LineColor=Gray8Dark   Visible=Yes   BubbleLoc=End
   CoordSys=GLOBAL   AxisDir=X   GridID=G   XRYZCoord=10   LineType=Primary   LineColor=Gray8Dark   Visible=Yes   BubbleLoc=End
   CoordSys=GLOBAL   AxisDir=Y   GridID=1   XRYZCoord=-5.2   LineType=Primary   LineColor=Gray8Dark   Visible=Yes   BubbleLoc=Start
   CoordSys=GLOBAL   AxisDir=Y   GridID=2   XRYZCoord=-4.2   LineType=Primary   LineColor=Gray8Dark   Visible=Yes   BubbleLoc=Start
   CoordSys=GLOBAL   AxisDir=Y   GridID=3   XRYZCoord=0   LineType=Primary   LineColor=Gray8Dark   Visible=Yes   BubbleLoc=Start
   CoordSys=GLOBAL   AxisDir=Y   GridID=4   XRYZCoord=4.2   LineType=Primary   LineColor=Gray8Dark   Visible=Yes   BubbleLoc=Start
   CoordSys=GLOBAL   AxisDir=Y   GridID=5   XRYZCoord=4.8   LineType=Primary   LineColor=Gray8Dark   Visible=Yes   BubbleLoc=Start
   CoordSys=GLOBAL   AxisDir=Z   GridID=Z1   XRYZCoord=0   LineType=Primary   LineColor=Gray8Dark   Visible=Yes   BubbleLoc=End
   CoordSys=GLOBAL   AxisDir=Z   GridID=Z2   XRYZCoord=13   LineType=Primary   LineColor=Gray8Dark   Visible=Yes   BubbleLoc=End
 
TABLE:  "GROUPS 1 - DEFINITIONS"
   GroupName=ALL   Selection=Yes   SectionCut=Yes   Steel=Yes   Concrete=Yes   Aluminum=Yes   ColdFormed=Yes   Stage=Yes   Bridge=Yes   AutoSeismic=No   AutoWind=No   SelDesSteel=No   SelDesAlum=No   SelDesCold=No   MassWeight=Yes   Color=Red
   GroupName=Pile   Selection=Yes   SectionCut=Yes   Steel=Yes   Concrete=Yes   Aluminum=Yes   ColdFormed=Yes   Stage=Yes   Bridge=Yes   AutoSeismic=No   AutoWind=No   SelDesSteel=No   SelDesAlum=No   SelDesCold=No   MassWeight=Yes   Color=Gray8Dark
   GroupName=DN   Selection=Yes   SectionCut=Yes   Steel=Yes   Concrete=Yes   Aluminum=Yes   ColdFormed=Yes   Stage=Yes   Bridge=Yes   AutoSeismic=No   AutoWind=No   SelDesSteel=No   SelDesAlum=No   SelDesCold=No   MassWeight=Yes   Color=Yellow
   GroupName=Pile_Toe   Selection=Yes   SectionCut=Yes   Steel=Yes   Concrete=Yes   Aluminum=Yes   ColdFormed=Yes   Stage=Yes   Bridge=Yes   AutoSeismic=No   AutoWind=No   SelDesSteel=No   SelDesAlum=No   SelDesCold=No   MassWeight=Yes   Color=Green
   GroupName=Pile_Bend   Selection=Yes   SectionCut=Yes   Steel=Yes   Concrete=Yes   Aluminum=Yes   ColdFormed=Yes   Stage=Yes   Bridge=Yes   AutoSeismic=No   AutoWind=No   SelDesSteel=No   SelDesAlum=No   SelDesCold=No   MassWeight=Yes   Color=Cyan
   GroupName=Beam   Selection=Yes   SectionCut=Yes   Steel=Yes   Concrete=Yes   Aluminum=Yes   ColdFormed=Yes   Stage=Yes   Bridge=Yes   AutoSeismic=No   AutoWind=No   SelDesSteel=No   SelDesAlum=No   SelDesCold=No   MassWeight=Yes   Color=Blue
   GroupName=Piles   Selection=Yes   SectionCut=Yes   Steel=Yes   Concrete=Yes   Aluminum=Yes   ColdFormed=Yes   Stage=Yes   Bridge=Yes   AutoSeismic=No   AutoWind=No   SelDesSteel=No   SelDesAlum=No   SelDesCold=No   MassWeight=Yes   Color=Blue
   GroupName=Beams   Selection=Yes   SectionCut=Yes   Steel=Yes   Concrete=Yes   Aluminum=Yes   ColdFormed=Yes   Stage=Yes   Bridge=Yes   AutoSeismic=No   AutoWind=No   SelDesSteel=No   SelDesAlum=No   SelDesCold=No   MassWeight=Yes   Color=Green
 
TABLE:  "GROUPS 2 - ASSIGNMENTS"
 
TABLE:  "JOINT COORDINATES"
   Joint=671913   CoordSys=GLOBAL   CoordType=Cartesian   XorR=-9   Y=-5   Z=0   SpecialJt=No   GUID=77414363-a513-426b-a117-30c51d5c9682
   Joint=671914   CoordSys=GLOBAL   CoordType=Cartesian   XorR=-9   Y=-2.95   Z=0   SpecialJt=No   GUID=a6352817-6186-4f86-a1fb-fae00fe65cd2
   Joint=671915   CoordSys=GLOBAL   CoordType=Cartesian   XorR=-6   Y=-5   Z=0   SpecialJt=No   GUID=301dc290-1c96-4745-bdd3-4c5e15e99d22
   Joint=671916   CoordSys=GLOBAL   CoordType=Cartesian   XorR=-6   Y=-2.95   Z=0   SpecialJt=No   GUID=00a46aa1-972f-431d-a037-9a1265c64080
   Joint=671917   CoordSys=GLOBAL   CoordType=Cartesian   XorR=-3   Y=-5   Z=0   SpecialJt=No   GUID=0303fed5-6126-4d61-af50-2def8fd6b763
   Joint=671918   CoordSys=GLOBAL   CoordType=Cartesian   XorR=-3   Y=-2.95   Z=0   SpecialJt=No   GUID=64007721-d366-4bce-bcf0-97800b22b0fe
   Joint=671919   CoordSys=GLOBAL   CoordType=Cartesian   XorR=0   Y=-5   Z=0   SpecialJt=No   GUID=1b8ac556-4544-4419-8bdd-1b1b97c55f66
   Joint=671920   CoordSys=GLOBAL   CoordType=Cartesian   XorR=0   Y=-2.95   Z=0   SpecialJt=No   GUID=600e8468-22f6-4865-be31-802060b26e33
   Joint=671921   CoordSys=GLOBAL   CoordType=Cartesian   XorR=3   Y=-5   Z=0   SpecialJt=No   GUID=bbbc70bf-33b0-4b4a-91b8-a6446a545f41
   Joint=671922   CoordSys=GLOBAL   CoordType=Cartesian   XorR=3   Y=-2.95   Z=0   SpecialJt=No   GUID=529637f0-4baf-4038-bf59-8ad23d67f578
   Joint=671923   CoordSys=GLOBAL   CoordType=Cartesian   XorR=6   Y=-5   Z=0   SpecialJt=No   GUID=59d53312-6a93-4280-a06d-dafbf6d87832
   Joint=671924   CoordSys=GLOBAL   CoordType=Cartesian   XorR=6   Y=-2.95   Z=0   SpecialJt=No   GUID=148e9c8c-8dd4-41b1-8b17-6f6e75f6c430
   Joint=671925   CoordSys=GLOBAL   CoordType=Cartesian   XorR=9   Y=-5   Z=0   SpecialJt=No   GUID=384b032a-50ee-4187-8e56-eb6d1f025cb2
   Joint=671926   CoordSys=GLOBAL   CoordType=Cartesian   XorR=9   Y=-2.95   Z=0   SpecialJt=No   GUID=73e47097-bd4c-4a3c-b0f3-9b257e2d59b4
   Joint=671927   CoordSys=GLOBAL   CoordType=Cartesian   XorR=-9   Y=2.95   Z=0   SpecialJt=No   GUID=1600a642-4ab8-4301-ba94-21b0c735a903
   Joint=671928   CoordSys=GLOBAL   CoordType=Cartesian   XorR=-6   Y=2.95   Z=0   SpecialJt=No   GUID=435e1dff-65ea-4cbe-9529-550decd67455
   Joint=671929   CoordSys=GLOBAL   CoordType=Cartesian   XorR=-3   Y=2.95   Z=0   SpecialJt=No   GUID=7ba9076b-b46a-4d15-af87-63700a608d8d
   Joint=671930   CoordSys=GLOBAL   CoordType=Cartesian   XorR=0   Y=2.95   Z=0   SpecialJt=No   GUID=78cc0e2d-8b03-454c-b430-a80307f1c13f
   Joint=671931   CoordSys=GLOBAL   CoordType=Cartesian   XorR=3   Y=2.95   Z=0   SpecialJt=No   GUID=4026da0b-73e5-49e9-8500-6fd47da59754
   Joint=671932   CoordSys=GLOBAL   CoordType=Cartesian   XorR=6   Y=2.95   Z=0   SpecialJt=No   GUID=e9f22e13-9cbf-404c-b8b8-83151998d261
   Joint=671933   CoordSys=GLOBAL   CoordType=Cartesian   XorR=9   Y=2.95   Z=0   SpecialJt=No   GUID=b89fe454-6934-46f5-96a1-07bbfda497d6
   Joint=671934   CoordSys=GLOBAL   CoordType=Cartesian   XorR=-9   Y=5   Z=0   SpecialJt=No   GUID=43ef4c12-643d-46c7-a758-7d3be1b937fe
   Joint=671935   CoordSys=GLOBAL   CoordType=Cartesian   XorR=-6   Y=5   Z=0   SpecialJt=No   GUID=c00bd331-00c1-4014-9486-00dc2de799c1
   Joint=671936   CoordSys=GLOBAL   CoordType=Cartesian   XorR=-3   Y=5   Z=0   SpecialJt=No   GUID=8298f0ae-a36e-4bf3-ba59-a3cdde5b862c
   Joint=671937   CoordSys=GLOBAL   CoordType=Cartesian   XorR=0   Y=5   Z=0   SpecialJt=No   GUID=96e39464-2747-47e1-a9a8-db20ec208a3c
   Joint=671938   CoordSys=GLOBAL   CoordType=Cartesian   XorR=3   Y=5   Z=0   SpecialJt=No   GUID=ebf23504-441f-40ce-bf17-941895c346f7
   Joint=671939   CoordSys=GLOBAL   CoordType=Cartesian   XorR=6   Y=5   Z=0   SpecialJt=No   GUID=42384b27-6c50-4123-9655-8c81dd2a46c6
   Joint=671940   CoordSys=GLOBAL   CoordType=Cartesian   XorR=9   Y=5   Z=0   SpecialJt=No   GUID=1030c31e-3da4-4846-85e8-88f32b0eb474
   Joint=671941   CoordSys=GLOBAL   CoordType=Cartesian   XorR=-10   Y=-2.95   Z=0   SpecialJt=No   GUID=b079cc94-9657-4597-aca3-4fdd285d2477
   Joint=671942   CoordSys=GLOBAL   CoordType=Cartesian   XorR=-10   Y=2.95   Z=0   SpecialJt=No   GUID=d78c80fe-8845-4224-935a-f44f19cc6784
   Joint=671943   CoordSys=GLOBAL   CoordType=Cartesian   XorR=10   Y=-2.95   Z=0   SpecialJt=No   GUID=fbb26c41-6170-4c11-8c02-55012f30845d
   Joint=671944   CoordSys=GLOBAL   CoordType=Cartesian   XorR=10   Y=2.95   Z=0   SpecialJt=No   GUID=bcfd85ea-7b39-4b03-bb55-41c7852ce98a
   Joint=671945   CoordSys=GLOBAL   CoordType=Cartesian   XorR=-9   Y=-2.95   Z=-3   SpecialJt=No   GUID=ade9bb07-2bf4-4483-abc2-18fd76068195
   Joint=671946   CoordSys=GLOBAL   CoordType=Cartesian   XorR=-9   Y=-2.95   Z=-13.4180229476075   SpecialJt=No   GUID=567e39c5-d0d4-47b5-a219-6ffc74424c5f
   Joint=671947   CoordSys=GLOBAL   CoordType=Cartesian   XorR=-9   Y=-2.95   Z=-39   SpecialJt=No   GUID=3886c8f2-a0b6-446f-81c8-c5941896fdd1
   Joint=671948   CoordSys=GLOBAL   CoordType=Cartesian   XorR=-6   Y=-2.95   Z=-3   SpecialJt=No   GUID=df76770f-388f-47ce-b773-047085b70f6f
   Joint=671949   CoordSys=GLOBAL   CoordType=Cartesian   XorR=-6   Y=-2.95   Z=-13.4180229476075   SpecialJt=No   GUID=9f3f0921-3c22-4add-9e67-f82f26be2450
   Joint=671950   CoordSys=GLOBAL   CoordType=Cartesian   XorR=-6   Y=-2.95   Z=-39   SpecialJt=No   GUID=d92c420b-a8b0-4865-9eae-aeb66f1ae5da
   Joint=671951   CoordSys=GLOBAL   CoordType=Cartesian   XorR=-3   Y=-2.95   Z=-3   SpecialJt=No   GUID=13390609-210d-430f-92de-3c6077b149cb
   Joint=671952   CoordSys=GLOBAL   CoordType=Cartesian   XorR=-3   Y=-2.95   Z=-13.4180229476075   SpecialJt=No   GUID=5f4b3fef-b8ab-4c7d-a147-9d57233848ff
   Joint=671953   CoordSys=GLOBAL   CoordType=Cartesian   XorR=-3   Y=-2.95   Z=-39   SpecialJt=No   GUID=d706d68a-3ccf-4bce-83ed-e5a82a0a36e9
   Joint=671954   CoordSys=GLOBAL   CoordType=Cartesian   XorR=0   Y=-2.95   Z=-3   SpecialJt=No   GUID=f5509f53-c0d6-4f0f-99fb-f963d3a2b65d
   Joint=671955   CoordSys=GLOBAL   CoordType=Cartesian   XorR=0   Y=-2.95   Z=-13.4180229476075   SpecialJt=No   GUID=cea05df5-7196-492f-a854-4f42ce126d51
   Joint=671956   CoordSys=GLOBAL   CoordType=Cartesian   XorR=0   Y=-2.95   Z=-39   SpecialJt=No   GUID=7715444c-28d8-49e7-8e58-8093560189ba
   Joint=671957   CoordSys=GLOBAL   CoordType=Cartesian   XorR=3   Y=-2.95   Z=-3   SpecialJt=No   GUID=b7ca93f6-e1f7-4182-adfe-1b62a34650b6
   Joint=671958   CoordSys=GLOBAL   CoordType=Cartesian   XorR=3   Y=-2.95   Z=-13.4180229476075   SpecialJt=No   GUID=f1548355-8bd4-4bd1-ae42-0c1ea0e114dd
   Joint=671959   CoordSys=GLOBAL   CoordType=Cartesian   XorR=3   Y=-2.95   Z=-39   SpecialJt=No   GUID=276422be-fe4b-4355-9d2b-d26b7675b7b5
   Joint=671960   CoordSys=GLOBAL   CoordType=Cartesian   XorR=6   Y=-2.95   Z=-3   SpecialJt=No   GUID=7d94ab21-be4c-46c3-954d-7a7beba0e790
   Joint=671961   CoordSys=GLOBAL   CoordType=Cartesian   XorR=6   Y=-2.95   Z=-13.4180229476075   SpecialJt=No   GUID=1c280797-86aa-4d65-a232-d4eebc6d65eb
   Joint=671962   CoordSys=GLOBAL   CoordType=Cartesian   XorR=6   Y=-2.95   Z=-39   SpecialJt=No   GUID=b546b4c4-2066-4412-88c0-1dd248380294
   Joint=671963   CoordSys=GLOBAL   CoordType=Cartesian   XorR=9   Y=-2.95   Z=-3   SpecialJt=No   GUID=cf82e58f-90f9-4815-9419-d36d60012f4a
   Joint=671964   CoordSys=GLOBAL   CoordType=Cartesian   XorR=9   Y=-2.95   Z=-13.4180229476075   SpecialJt=No   GUID=4d62f4de-a96e-499c-afcd-fcea825e771b
   Joint=671965   CoordSys=GLOBAL   CoordType=Cartesian   XorR=9   Y=-2.95   Z=-39   SpecialJt=No   GUID=3b7e6bf5-54fa-44a3-93a0-897ead62a859
   Joint=671966   CoordSys=GLOBAL   CoordType=Cartesian   XorR=-9   Y=2.95   Z=-13.4180229476075   SpecialJt=No   GUID=bb94432e-67ec-49df-a94b-ad0b17eeba9f
   Joint=671967   CoordSys=GLOBAL   CoordType=Cartesian   XorR=-9   Y=2.95   Z=-39   SpecialJt=No   GUID=d722b5d7-f521-4239-907d-3c6b948e1cb6
   Joint=671968   CoordSys=GLOBAL   CoordType=Cartesian   XorR=-6   Y=2.95   Z=-13.4180229476075   SpecialJt=No   GUID=7cdde7a9-0c82-452e-a3bd-0489746002a3
   Joint=671969   CoordSys=GLOBAL   CoordType=Cartesian   XorR=-6   Y=2.95   Z=-39   SpecialJt=No   GUID=482e3763-e560-4824-8d49-328749006b07
   Joint=671970   CoordSys=GLOBAL   CoordType=Cartesian   XorR=-3   Y=2.95   Z=-13.4180229476075   SpecialJt=No   GUID=929a9360-46d8-4ddb-ad2d-6a2c4afa9dad
   Joint=671971   CoordSys=GLOBAL   CoordType=Cartesian   XorR=-3   Y=2.95   Z=-39   SpecialJt=No   GUID=d70d7771-ed64-4251-91a4-6e661c35bb5e
   Joint=671972   CoordSys=GLOBAL   CoordType=Cartesian   XorR=0   Y=2.95   Z=-13.4180229476075   SpecialJt=No   GUID=91a9fd2a-d4e2-4726-b736-ff5c0bb31a03
   Joint=671973   CoordSys=GLOBAL   CoordType=Cartesian   XorR=0   Y=2.95   Z=-39   SpecialJt=No   GUID=0f8178b4-6180-47df-a34a-ed6bac71b28a
   Joint=671974   CoordSys=GLOBAL   CoordType=Cartesian   XorR=3   Y=2.95   Z=-13.4180229476075   SpecialJt=No   GUID=14f8352d-83bf-44b4-b42c-e9c3dfcb81f7
   Joint=671975   CoordSys=GLOBAL   CoordType=Cartesian   XorR=3   Y=2.95   Z=-39   SpecialJt=No   GUID=f6ca4657-054b-4cf9-a03d-cae9e6b44c14
   Joint=671976   CoordSys=GLOBAL   CoordType=Cartesian   XorR=6   Y=2.95   Z=-13.4180229476075   SpecialJt=No   GUID=af7e41f5-380e-45d9-9186-f11beb0051c7
   Joint=671977   CoordSys=GLOBAL   CoordType=Cartesian   XorR=6   Y=2.95   Z=-39   SpecialJt=No   GUID=6ddd5a7c-abf1-453a-99e4-a12f2a0ef186
   Joint=671978   CoordSys=GLOBAL   CoordType=Cartesian   XorR=9   Y=2.95   Z=-13.4180229476075   SpecialJt=No   GUID=640a6809-7626-4b46-bfee-70401980a248
   Joint=671979   CoordSys=GLOBAL   CoordType=Cartesian   XorR=9   Y=2.95   Z=-39   SpecialJt=No   GUID=4fd76fb9-191e-4942-ab11-ac5dc39f85d4
   Joint=671980   CoordSys=GLOBAL   CoordType=Cartesian   XorR=-10   Y=-5   Z=0   SpecialJt=No   GUID=e0355bf3-f0af-41bb-b7dc-61b53264cd50
   Joint=671981   CoordSys=GLOBAL   CoordType=Cartesian   XorR=10   Y=-5   Z=0   SpecialJt=No   GUID=74de0641-317d-4d16-bfa6-5308ba149157
   Joint=671982   CoordSys=GLOBAL   CoordType=Cartesian   XorR=-10   Y=5   Z=0   SpecialJt=No   GUID=65c9d15f-6e3d-4f0a-abf5-fb0055ca3d5d
   Joint=671983   CoordSys=GLOBAL   CoordType=Cartesian   XorR=10   Y=5   Z=0   SpecialJt=No   GUID=8be62a76-15b5-4ac4-a7e4-ddb397877b2d
 
TABLE:  "JOINT PATTERN DEFINITIONS"
   Pattern=Default
 
TABLE:  "JOINT RESTRAINT ASSIGNMENTS"
   Joint=671946   U1=Yes   U2=Yes   U3=No   R1=Yes   R2=Yes   R3=Yes
   Joint=671947   U1=No   U2=No   U3=Yes   R1=No   R2=No   R3=No
   Joint=671949   U1=Yes   U2=Yes   U3=No   R1=Yes   R2=Yes   R3=Yes
   Joint=671950   U1=No   U2=No   U3=Yes   R1=No   R2=No   R3=No
   Joint=671952   U1=Yes   U2=Yes   U3=No   R1=Yes   R2=Yes   R3=Yes
   Joint=671953   U1=No   U2=No   U3=Yes   R1=No   R2=No   R3=No
   Joint=671955   U1=Yes   U2=Yes   U3=No   R1=Yes   R2=Yes   R3=Yes
   Joint=671956   U1=No   U2=No   U3=Yes   R1=No   R2=No   R3=No
   Joint=671958   U1=Yes   U2=Yes   U3=No   R1=Yes   R2=Yes   R3=Yes
   Joint=671959   U1=No   U2=No   U3=Yes   R1=No   R2=No   R3=No
   Joint=671961   U1=Yes   U2=Yes   U3=No   R1=Yes   R2=Yes   R3=Yes
   Joint=671962   U1=No   U2=No   U3=Yes   R1=No   R2=No   R3=No
   Joint=671964   U1=Yes   U2=Yes   U3=No   R1=Yes   R2=Yes   R3=Yes
   Joint=671965   U1=No   U2=No   U3=Yes   R1=No   R2=No   R3=No
   Joint=671966   U1=Yes   U2=Yes   U3=No   R1=Yes   R2=Yes   R3=Yes
   Joint=671967   U1=No   U2=No   U3=Yes   R1=No   R2=No   R3=No
   Joint=671968   U1=Yes   U2=Yes   U3=No   R1=Yes   R2=Yes   R3=Yes
   Joint=671969   U1=No   U2=No   U3=Yes   R1=No   R2=No   R3=No
   Joint=671970   U1=Yes   U2=Yes   U3=No   R1=Yes   R2=Yes   R3=Yes
   Joint=671971   U1=No   U2=No   U3=Yes   R1=No   R2=No   R3=No
   Joint=671972   U1=Yes   U2=Yes   U3=No   R1=Yes   R2=Yes   R3=Yes
   Joint=671973   U1=No   U2=No   U3=Yes   R1=No   R2=No   R3=No
   Joint=671974   U1=Yes   U2=Yes   U3=No   R1=Yes   R2=Yes   R3=Yes
   Joint=671975   U1=No   U2=No   U3=Yes   R1=No   R2=No   R3=No
   Joint=671976   U1=Yes   U2=Yes   U3=No   R1=Yes   R2=Yes   R3=Yes
   Joint=671977   U1=No   U2=No   U3=Yes   R1=No   R2=No   R3=No
   Joint=671978   U1=Yes   U2=Yes   U3=No   R1=Yes   R2=Yes   R3=Yes
   Joint=671979   U1=No   U2=No   U3=Yes   R1=No   R2=No   R3=No
 
TABLE:  "LOAD CASE DEFINITIONS"
   Case=DEAD   Type=LinStatic   InitialCond=Zero   DesTypeOpt="Prog Det"   DesignType=Dead   DesActOpt="Prog Det"   DesignAct=Non-Composite   AutoType=None   RunCase=Yes
   Case=MODAL   Type=LinModal   InitialCond=Zero   DesTypeOpt="Prog Det"   DesignType=Other   DesActOpt="Prog Det"   DesignAct=Other   AutoType=None   RunCase=Yes
   Case=LL   Type=LinStatic   InitialCond=Zero   DesTypeOpt="Prog Det"   DesignType=Live   DesActOpt="Prog Det"   DesignAct="Short-Term Composite"   AutoType=None   RunCase=Yes
 
TABLE:  "LOAD PATTERN DEFINITIONS"
   LoadPat=DEAD   DesignType=Dead   SelfWtMult=1
   LoadPat=LL   DesignType=Live   SelfWtMult=0
 
TABLE:  "MASS SOURCE"
   MassSource=MSSSRC1   Elements=Yes   Masses=Yes   Loads=No   IsDefault=Yes
 
TABLE:  "MATERIAL PROPERTIES 01 - GENERAL"
   Material=A706   Type=Rebar   SymType=Uniaxial   TempDepend=No   Color=Gray8Dark   GUID=30185aab-1311-4f4b-9ffe-ddad707d22d9   Notes="ASTM A706 added 8/23/2025 4:27:57 PM"
   Material=BTCT   Type=Concrete   SymType=Isotropic   TempDepend=No   Color=Blue   Notes="Concrete added 24-Feb-23 16:30:01"
   Material=BTCTCOC   Type=Concrete   SymType=Isotropic   TempDepend=No   Color=Blue   Notes="Concrete added 24-Feb-23 16:30:01"
   Material=Steel   Type=Steel   SymType=Isotropic   TempDepend=No   Color=Magenta   GUID=2f952889-4898-4964-97a4-5fb5c5008d33   Notes="Steel added 8/24/2025 2:51:43 PM"
   Material=Tendon   Type=Tendon   SymType=Uniaxial   TempDepend=No   Color=Yellow   GUID=7dfcd093-823e-4b3a-b96f-35d5bcaf456f   Notes="Tendon added 8/24/2025 2:51:43 PM"
 
TABLE:  "MATERIAL PROPERTIES 02 - BASIC MECHANICAL PROPERTIES"
   Material=A706   UnitWeight=7.84904757236607   UnitMass=0.800380070686609   E1=20389019.1580383   A1=1.16999994421006E-05
   Material=BTCT   UnitWeight=2.40276966501002   UnitMass=0.245014307353044   E1=2900000   G12=1208333.33333333   U12=0.2   A1=9.9E-06
   Material=BTCTCOC   UnitWeight=2.40276966501002   UnitMass=0.245014307353044   E1=3800000000   G12=1583333333.33333   U12=0.2   A1=9.9E-06
   Material=Steel   UnitWeight=7.84904757236607   UnitMass=0.800380070686609   E1=20389019.1580383   G12=7841930.44539935   U12=0.3   A1=1.17E-05
   Material=Tendon   UnitWeight=7.84904757236607   UnitMass=0.800380070686609   E1=20037484.3449687   A1=1.16999994421006E-05
 
TABLE:  "MATERIAL PROPERTIES 03A - STEEL DATA"
   Material=Steel   Fy=35153.4813069626   Fu=45699.5256990514   EffFy=38668.8294376589   EffFu=50269.4782689565   SSCurveOpt=Simple   SSHysType=Kinematic   SHard=0.015   SMax=0.11   SRup=0.17   FinalSlope=-0.1   CoupModType="Von Mises"
 
TABLE:  "MATERIAL PROPERTIES 03B - CONCRETE DATA"
   Material=BTCT   Fc=2812.27850455701   eFc=2812.27850455701   LtWtConc=No   SSCurveOpt=Mander   SSHysType=Takeda   SFc=0.002   SCap=0.005   FinalSlope=-0.1   FAngle=0   DAngle=0   CoupModType="Modified Darwin-Pecknold"
   Material=BTCTCOC   Fc=2812.27850455701   eFc=2812.27850455701   LtWtConc=No   SSCurveOpt=Mander   SSHysType=Takeda   SFc=0.002   SCap=0.005   FinalSlope=-0.1   FAngle=0   DAngle=0   CoupModType="Modified Darwin-Pecknold"
 
TABLE:  "MATERIAL PROPERTIES 03E - REBAR DATA"
   Material=A706   Fy=42184.1775683551   Fu=56245.5700911402   EffFy=46402.5953251907   EffFu=61870.1271002542   SSCurveOpt=Simple   SSHysType=Kinematic   SHard=0.011   SCap=0.11   FinalSlope=-0.1   UseCTDef=No   CoupModType="Von Mises"
 
TABLE:  "MATERIAL PROPERTIES 03F - TENDON DATA"
   Material=Tendon   Fy=172322.365366731   Fu=189828.799057598   SSCurveOpt="270 ksi"   SSHysType=Kinematic   FinalSlope=-0.1   CoupModType="Von Mises"
 
TABLE:  "MATERIAL PROPERTIES 03J - COUPLED NONLINEAR VON MISES DATA"
   Material=A706   YieldStress=46402.5953251907   LinIsoHard=No   LinKinHard=No   NLIsoSaHard=No
   Material=Steel   YieldStress=38668.8294376589   LinIsoHard=No   LinKinHard=No   NLIsoSaHard=No
   Material=Tendon   YieldStress=172322.365366731   LinIsoHard=No   LinKinHard=No   NLIsoSaHard=No
 
TABLE:  "MATERIAL PROPERTIES 06 - DAMPING PARAMETERS"
   Material=A706   ModalRatio=0   VisMass=0   VisStiff=0   HysMass=0   HysStiff=0
   Material=BTCT   ModalRatio=0   VisMass=0   VisStiff=0   HysMass=0   HysStiff=0
   Material=BTCTCOC   ModalRatio=0   VisMass=0   VisStiff=0   HysMass=0   HysStiff=0
   Material=Steel   ModalRatio=0   VisMass=0   VisStiff=0   HysMass=0   HysStiff=0
   Material=Tendon   ModalRatio=0   VisMass=0   VisStiff=0   HysMass=0   HysStiff=0
 
TABLE:  "MATERIAL PROPERTIES 09 - ACCEPTANCE CRITERIA"
   Material=A706   IOTens=0.01   LSTens=0.02   CPTens=0.05   IOComp=-0.005   LSComp=-0.01   CPComp=-0.02
   Material=BTCT   IOTens=0.01   LSTens=0.02   CPTens=0.05   IOComp=-0.003   LSComp=-0.006   CPComp=-0.015   IgnoreTens=Yes
   Material=BTCTCOC   IOTens=0.01   LSTens=0.02   CPTens=0.05   IOComp=-0.003   LSComp=-0.006   CPComp=-0.015   IgnoreTens=Yes
   Material=Steel   IOTens=0.01   LSTens=0.02   CPTens=0.05   IOComp=-0.005   LSComp=-0.01   CPComp=-0.02
   Material=Tendon   IOTens=0.015   LSTens=0.023   CPTens=0.03   IOComp=-0.015   LSComp=-0.023   CPComp=-0.03
 
TABLE:  "OPTIONS - COLORS - DISPLAY"
   DeviceType=Screen   Points=Blue   LinesFrame=Blue   LinesFrmDL=Blue   LinesCable=Green   LinesTendon=Green   SpringLinks=Green   Restraints=Green   Releases=Green   Axes=Cyan   Text=Black   ShadowLines=Gray8Dark   GuideLines=Gray8Dark _
        Highlight=Red   Selection=10504778   AreaFillBot=Red   AreaFillTop=16744703   AreaFillSd=Red   AreaEdge=DarkRed   SolidF1=Red   SolidF2=Blue   SolidF3=Green   SolidF4=Yellow   SolidF5=White   SolidF6=Cyan   SolidEdge=DarkRed _
        Floor=Gray4   Background=White   BGLowLeft=White   BGLowRight=White   BGUpRight=White   Darkness=0.5
   DeviceType=Printer   Points=Gray8Dark   LinesFrame=Black   LinesFrmDL=Gray4   LinesCable=Black   LinesTendon=Black   SpringLinks=Gray8Dark   Restraints=Gray8Dark   Releases=Gray4   Axes=Black   Text=Black   ShadowLines=Gray4 _
        GuideLines=Gray4   Highlight=Black   Selection=Black   AreaFillBot=Gray4   AreaFillTop=Gray8Dark   AreaFillSd=Gray4   AreaEdge=Black   SolidF1=Gray1Light   SolidF2=Gray2   SolidF3=Gray3   SolidF4=Gray4   SolidF5=Gray5 _
        SolidF6=Gray6   SolidEdge=Black   Floor=Gray4   Background=White   BGLowLeft=White   BGLowRight=White   BGUpRight=White   Darkness=0.5
   DeviceType="Color Printer"   Points=Blue   LinesFrame=Blue   LinesFrmDL=Blue   LinesCable=Green   LinesTendon=Green   SpringLinks=Green   Restraints=Green   Releases=Green   Axes=Cyan   Text=Black   ShadowLines=Gray8Dark _
        GuideLines=Gray8Dark   Highlight=Red   Selection=10504778   AreaFillBot=Red   AreaFillTop=16744703   AreaFillSd=Red   AreaEdge=DarkRed   SolidF1=Red   SolidF2=Blue   SolidF3=Green   SolidF4=Yellow   SolidF5=White   SolidF6=Cyan _
        SolidEdge=DarkRed   Floor=Gray4   Background=White   BGLowLeft=White   BGLowRight=White   BGUpRight=White   Darkness=0.5
 
TABLE:  "OPTIONS - COLORS - OUTPUT"
   DeviceType=Screen   Contour1=13107400   Contour2=6553828   Contour3=Red   Contour4=16639   Contour5=Orange   Contour6=43775   Contour7=54527   Contour8=Yellow   Contour9=65408   Contour10=Green   Contour11=8453888   Contour12=Cyan _
        Contour13=16755200   Contour14=16733440   Contour15=Blue   Transpare=0.5   Ratio1=Cyan   Ratio2=Green   Ratio3=Yellow   Ratio4=Orange   Ratio5=Red   RatioNotD=Gray4   RatioNotC=Red   RatioVal1=0.5   RatioVal2=0.7   RatioVal3=0.9 _
        RatioVal4=1   DFillPos=Blue   DFillNeg=Red   DFillRPos=Green   DFillRNeg=Green
   DeviceType=Printer   Contour1=Black   Contour2=3158064   Contour3=4210752   Contour4=5263440   Contour5=6316128   Contour6=7368816   Contour7=Gray8Dark   Contour8=Gray7   Contour9=Gray6   Contour10=Gray5   Contour11=Gray4 _
        Contour12=Gray3   Contour13=Gray2   Contour14=Gray1Light   Contour15=White   Transpare=0   Ratio1=Gray2   Ratio2=Gray4   Ratio3=Gray8Dark   Ratio4=4210752   Ratio5=Black   RatioNotD=Gray4   RatioNotC=Black   RatioVal1=0.5 _
        RatioVal2=0.7   RatioVal3=0.9   RatioVal4=1   DFillPos=Gray8Dark   DFillNeg=Gray8Dark   DFillRPos=4210752   DFillRNeg=4210752
   DeviceType="Color Printer"   Contour1=13107400   Contour2=6553828   Contour3=Red   Contour4=16639   Contour5=Orange   Contour6=43775   Contour7=54527   Contour8=Yellow   Contour9=65408   Contour10=Green   Contour11=8453888 _
        Contour12=Cyan   Contour13=16755200   Contour14=16733440   Contour15=Blue   Transpare=0   Ratio1=Cyan   Ratio2=Green   Ratio3=Yellow   Ratio4=Orange   Ratio5=Red   RatioNotD=Gray4   RatioNotC=Red   RatioVal1=0.5   RatioVal2=0.7 _
        RatioVal3=0.9   RatioVal4=1   DFillPos=Blue   DFillNeg=Red   DFillRPos=Green   DFillRNeg=Green
 
TABLE:  "OVERWRITES - CONCRETE DESIGN - CSA-A233-14"
   Frame=752893   DesignSect="Program Determined"   FrameType="Program Determined"   RLLF=0   XLMajor=0   XLMinor=0   XKMajor=0   XKMinor=0   CmMajor=0   CmMinor=0   DbMajor=0   DbMinor=0   DsMajor=0   DsMinor=0   Rd=0   Ro=0   MaxAggSize=0
   Frame=752894   DesignSect="Program Determined"   FrameType="Program Determined"   RLLF=0   XLMajor=0   XLMinor=0   XKMajor=0   XKMinor=0   CmMajor=0   CmMinor=0   DbMajor=0   DbMinor=0   DsMajor=0   DsMinor=0   Rd=0   Ro=0   MaxAggSize=0
   Frame=752895   DesignSect="Program Determined"   FrameType="Program Determined"   RLLF=0   XLMajor=0   XLMinor=0   XKMajor=0   XKMinor=0   CmMajor=0   CmMinor=0   DbMajor=0   DbMinor=0   DsMajor=0   DsMinor=0   Rd=0   Ro=0   MaxAggSize=0
   Frame=752896   DesignSect="Program Determined"   FrameType="Program Determined"   RLLF=0   XLMajor=0   XLMinor=0   XKMajor=0   XKMinor=0   CmMajor=0   CmMinor=0   DbMajor=0   DbMinor=0   DsMajor=0   DsMinor=0   Rd=0   Ro=0   MaxAggSize=0
   Frame=752897   DesignSect="Program Determined"   FrameType="Program Determined"   RLLF=0   XLMajor=0   XLMinor=0   XKMajor=0   XKMinor=0   CmMajor=0   CmMinor=0   DbMajor=0   DbMinor=0   DsMajor=0   DsMinor=0   Rd=0   Ro=0   MaxAggSize=0
   Frame=752898   DesignSect="Program Determined"   FrameType="Program Determined"   RLLF=0   XLMajor=0   XLMinor=0   XKMajor=0   XKMinor=0   CmMajor=0   CmMinor=0   DbMajor=0   DbMinor=0   DsMajor=0   DsMinor=0   Rd=0   Ro=0   MaxAggSize=0
   Frame=752899   DesignSect="Program Determined"   FrameType="Program Determined"   RLLF=0   XLMajor=0   XLMinor=0   XKMajor=0   XKMinor=0   CmMajor=0   CmMinor=0   DbMajor=0   DbMinor=0   DsMajor=0   DsMinor=0   Rd=0   Ro=0   MaxAggSize=0
   Frame=752900   DesignSect="Program Determined"   FrameType="Program Determined"   RLLF=0   XLMajor=0   XLMinor=0   XKMajor=0   XKMinor=0   CmMajor=0   CmMinor=0   DbMajor=0   DbMinor=0   DsMajor=0   DsMinor=0   Rd=0   Ro=0   MaxAggSize=0
   Frame=752901   DesignSect="Program Determined"   FrameType="Program Determined"   RLLF=0   XLMajor=0   XLMinor=0   XKMajor=0   XKMinor=0   CmMajor=0   CmMinor=0   DbMajor=0   DbMinor=0   DsMajor=0   DsMinor=0   Rd=0   Ro=0   MaxAggSize=0
   Frame=752902   DesignSect="Program Determined"   FrameType="Program Determined"   RLLF=0   XLMajor=0   XLMinor=0   XKMajor=0   XKMinor=0   CmMajor=0   CmMinor=0   DbMajor=0   DbMinor=0   DsMajor=0   DsMinor=0   Rd=0   Ro=0   MaxAggSize=0
   Frame=752903   DesignSect="Program Determined"   FrameType="Program Determined"   RLLF=0   XLMajor=0   XLMinor=0   XKMajor=0   XKMinor=0   CmMajor=0   CmMinor=0   DbMajor=0   DbMinor=0   DsMajor=0   DsMinor=0   Rd=0   Ro=0   MaxAggSize=0
   Frame=752904   DesignSect="Program Determined"   FrameType="Program Determined"   RLLF=0   XLMajor=0   XLMinor=0   XKMajor=0   XKMinor=0   CmMajor=0   CmMinor=0   DbMajor=0   DbMinor=0   DsMajor=0   DsMinor=0   Rd=0   Ro=0   MaxAggSize=0
   Frame=752905   DesignSect="Program Determined"   FrameType="Program Determined"   RLLF=0   XLMajor=0   XLMinor=0   XKMajor=0   XKMinor=0   CmMajor=0   CmMinor=0   DbMajor=0   DbMinor=0   DsMajor=0   DsMinor=0   Rd=0   Ro=0   MaxAggSize=0
   Frame=752906   DesignSect="Program Determined"   FrameType="Program Determined"   RLLF=0   XLMajor=0   XLMinor=0   XKMajor=0   XKMinor=0   CmMajor=0   CmMinor=0   DbMajor=0   DbMinor=0   DsMajor=0   DsMinor=0   Rd=0   Ro=0   MaxAggSize=0
   Frame=752907   DesignSect="Program Determined"   FrameType="Program Determined"   RLLF=0   XLMajor=0   XLMinor=0   XKMajor=0   XKMinor=0   CmMajor=0   CmMinor=0   DbMajor=0   DbMinor=0   DsMajor=0   DsMinor=0   Rd=0   Ro=0   MaxAggSize=0
   Frame=752908   DesignSect="Program Determined"   FrameType="Program Determined"   RLLF=0   XLMajor=0   XLMinor=0   XKMajor=0   XKMinor=0   CmMajor=0   CmMinor=0   DbMajor=0   DbMinor=0   DsMajor=0   DsMinor=0   Rd=0   Ro=0   MaxAggSize=0
   Frame=752909   DesignSect="Program Determined"   FrameType="Program Determined"   RLLF=0   XLMajor=0   XLMinor=0   XKMajor=0   XKMinor=0   CmMajor=0   CmMinor=0   DbMajor=0   DbMinor=0   DsMajor=0   DsMinor=0   Rd=0   Ro=0   MaxAggSize=0
   Frame=752910   DesignSect="Program Determined"   FrameType="Program Determined"   RLLF=0   XLMajor=0   XLMinor=0   XKMajor=0   XKMinor=0   CmMajor=0   CmMinor=0   DbMajor=0   DbMinor=0   DsMajor=0   DsMinor=0   Rd=0   Ro=0   MaxAggSize=0
   Frame=752911   DesignSect="Program Determined"   FrameType="Program Determined"   RLLF=0   XLMajor=0   XLMinor=0   XKMajor=0   XKMinor=0   CmMajor=0   CmMinor=0   DbMajor=0   DbMinor=0   DsMajor=0   DsMinor=0   Rd=0   Ro=0   MaxAggSize=0
   Frame=752912   DesignSect="Program Determined"   FrameType="Program Determined"   RLLF=0   XLMajor=0   XLMinor=0   XKMajor=0   XKMinor=0   CmMajor=0   CmMinor=0   DbMajor=0   DbMinor=0   DsMajor=0   DsMinor=0   Rd=0   Ro=0   MaxAggSize=0
# ... 30 like lines cut
 
TABLE:  "PREFERENCES - ALUMINUM DESIGN - AA 2015"
   THDesign=Envelopes   SRatioLimit=1   Provision=ASD   LatFact=1.33333333333333   UseLatFact=No   Bridge=No   OmegaTy=1.65   OmegaTr=1.95   OmegaC=1.65   OmegaBo=1.65   OmegaBr=1.95   OmegaVo=1.65   OmegaVr=1.95
 
TABLE:  "PREFERENCES - COLD FORMED DESIGN - AISI-ASD96"
   THDesign=Envelopes   FrameType="Braced Frame"   SRatioLimit=1   MaxIter=1   OmegaBS=1.67   OmegaBUS=1.67   OmegaBLTB=1.67   OmegaVS=1.67   OmegaVNS=1.5   OmegaT=1.67   OmegaC=1.8
 
TABLE:  "PREFERENCES - CONCRETE DESIGN - CSA-A233-14"
   THDesign=Envelopes   NumCurves=24   NumPoints=11   MinEccen=Yes   BCCDesign=Yes   CTorsion=Yes   PatLLF=0.75   UFLimit=0.95   PhiS=0.85   PhiC=0.65
 
TABLE:  "PREFERENCES - CONCRETE SHELL DESIGN - EUROCODE 2-2004"
   Country="CEN Default"   GammaS=1.15   GammaC=1.5   AlphaCC=1
 
TABLE:  "PREFERENCES - DIMENSIONAL"
   MergeTol=0.001   FineGrid=0.25   Nudge=0.25   SelectTol=3   SnapTol=12   SLineThick=1   PLineThick=4   MaxFont=8   MinFont=3   AutoZoom=10   ShrinkFact=70   TextFileLen=240
 
TABLE:  "PREFERENCES - STEEL DESIGN - AISC 360-10"
   THDesign=Envelopes   FrameType=SMF   PatLLF=0.75   SRatioLimit=0.95   MaxIter=1   SDC=D   SeisCode=No   SeisLoad=No   ImpFactor=1   SystemRho=1   SystemSds=0.5   SystemR=8   SystemCd=5.5   Omega0=3   Provision=LRFD _
        AMethod="Direct Analysis"   SOMethod="General 2nd Order"   SRMethod="Tau-b Fixed"   NLCoeff=0.002   PhiB=0.9   PhiC=0.9   PhiTY=0.9   PhiTF=0.75   PhiV=0.9   PhiVRolledI=1   PhiVT=0.9   PlugWeld=Yes   HSSWelding=ERW   HSSReduceT=No _
        CheckDefl=No   DLRat=120   SDLAndLLRat=120   LLRat=360   TotalRat=240   NetRat=240
 
TABLE:  "PROGRAM CONTROL"
   ProgramName=SAP2000   Version=24.0.0   CurrUnits="Tonf, m, C"   SteelCode="AISC 360-10"   ConcCode="CSA A23.3-14"   AlumCode="AA 2015"   ColdCode=AISI-ASD96   RegenHinge=Yes
 
TABLE:  "PROJECT INFORMATION"
   Item="Company Name"   Data=po
   Item="Client Name"
   Item="Project Name"
   Item="Project Number"
   Item="Model Name"
   Item="Model Description"
   Item="Revision Number"
   Item="Frame Type"
   Item=Engineer
   Item=Checker
   Item=Supervisor
   Item="Issue Code"
   Item="Design Code"
 
TABLE:  "REBAR SIZES"
   RebarID=#2   Area=3.2258E-05   Diameter=0.00635
   RebarID=#3   Area=7.09675996154547E-05   Diameter=0.009525
   RebarID=#4   Area=0.000129032001922727   Diameter=0.0127
   RebarID=#5   Area=0.000199999601538181   Diameter=0.015875
   RebarID=#6   Area=0.000283870398461819   Diameter=0.01905
   RebarID=#7   Area=0.000387096015381813   Diameter=0.022225
   RebarID=#8   Area=0.000509676413843632   Diameter=0.0254
   RebarID=#9   Area=0.00064516   Diameter=0.0286512005329132
   RebarID=#10   Area=0.00081935318769455   Diameter=0.0322579995155334
   RebarID=#11   Area=0.00100644956308365   Diameter=0.0358139991521835
   RebarID=#14   Area=0.00145161   Diameter=0.0430021989583969
   RebarID=#18   Area=0.00258064   Diameter=0.0573277992248535
   RebarID=10M   Area=0.000100000004162606   Diameter=0.0113000003604438
   RebarID=15M   Area=0.000200000008325212   Diameter=0.0160000002402959
   RebarID=20M   Area=0.000300000012487818   Diameter=0.0195000002928606
   RebarID=25M   Area=0.000500000020813031   Diameter=0.0252000011414055
   RebarID=30M   Area=0.000700000029138243   Diameter=0.0299000000675832
   RebarID=35M   Area=0.00100000004162606   Diameter=0.0357000012990997
   RebarID=45M   Area=0.00150000006243909   Diameter=0.0437000014192476
   RebarID=55M   Area=0.00250000010406515   Diameter=0.056400002372922
   RebarID=6d   Area=2.83000004150781E-05   Diameter=0.00600000009011096
   RebarID=8d   Area=5.03000013308514E-05   Diameter=0.00800000012014795
   RebarID=10d   Area=7.85000032676458E-05   Diameter=0.0100000001501849
   RebarID=12d   Area=0.000113000004703745   Diameter=0.0120000001802219
   RebarID=14d   Area=0.000154000006410413   Diameter=0.0140000002102589
   RebarID=16d   Area=0.000201000008366838   Diameter=0.0160000002402959
   RebarID=20d   Area=0.000314000013070583   Diameter=0.0200000003003699
   RebarID=25d   Area=0.000491000020438396   Diameter=0.0250000003754623
   RebarID=26d   Area=0.000531000022103439   Diameter=0.0260000003904808
   RebarID=28d   Area=0.000616000025641654   Diameter=0.0280000004205178
   RebarID=N12   Area=0.000113000004703745   Diameter=0.0120000001802219
   RebarID=N16   Area=0.000201000008366838   Diameter=0.0160000002402959
   RebarID=N20   Area=0.000314000013070583   Diameter=0.0200000003003699
   RebarID=N24   Area=0.00045200001881498   Diameter=0.0240000003604438
   RebarID=N28   Area=0.000616000025641654   Diameter=0.0280000004205178
   RebarID=N32   Area=0.000804000033467353   Diameter=0.0320000004805918
   RebarID=N36   Area=0.00102000004245858   Diameter=0.0360000005406658
 
TABLE:  "SOLID PROPERTY DEFINITIONS"
   SolidProp=Solid1   Material=BTCT   MatAngleA=0   MatAngleB=0   MatAngleC=0   InComp=Yes   Color=Gray8Dark
 
END TABLE DATA
