File D:\ResearchLab\02_Projects\02_Projects\Tap chi XD_SFOA\code\SOO_MPJ\MPJ_Sap\SOO_Displacement_W08\MPJ_8.$2k was saved on m/d/yy at h:mm:ss
 
TABLE:  "ACTIVE DEGREES OF FREEDOM"
   UX=Yes   UY=Yes   UZ=Yes   RX=Yes   RY=Yes   RZ=Yes
 
TABLE:  "ANALYSIS OPTIONS"
   Solver=Advanced   SolverProc=Auto   Force32Bit=No   StiffCase=None   GeomMod=None   HingeOpt="In Elements"   NumAThreads=0   MaxFileSize=0   NumDThreads=0   NumRThreads=0   UseMMFiles="Program Determined"   AllowDiff=No
 
TABLE:  "AREA AUTO MESH ASSIGNMENTS"
   Area=379044   MeshType="Number of Elements"   MeshGroup=ALL   Number1=3   Number2=3   LocalEdge=No   LocalFace=No   SuppEdge=No   SuppFace=No   SubMesh=No
   Area=379045   MeshType="Number of Elements"   MeshGroup=ALL   Number1=3   Number2=3   LocalEdge=No   LocalFace=No   SuppEdge=No   SuppFace=No   SubMesh=No
   Area=379046   MeshType="Number of Elements"   MeshGroup=ALL   Number1=3   Number2=3   LocalEdge=No   LocalFace=No   SuppEdge=No   SuppFace=No   SubMesh=No
   Area=379047   MeshType="Number of Elements"   MeshGroup=ALL   Number1=3   Number2=3   LocalEdge=No   LocalFace=No   SuppEdge=No   SuppFace=No   SubMesh=No
   Area=379048   MeshType="Number of Elements"   MeshGroup=ALL   Number1=3   Number2=3   LocalEdge=No   LocalFace=No   SuppEdge=No   SuppFace=No   SubMesh=No
   Area=379049   MeshType="Number of Elements"   MeshGroup=ALL   Number1=3   Number2=3   LocalEdge=No   LocalFace=No   SuppEdge=No   SuppFace=No   SubMesh=No
   Area=379050   MeshType="Number of Elements"   MeshGroup=ALL   Number1=3   Number2=3   LocalEdge=No   LocalFace=No   SuppEdge=No   SuppFace=No   SubMesh=No
   Area=379051   MeshType="Number of Elements"   MeshGroup=ALL   Number1=3   Number2=3   LocalEdge=No   LocalFace=No   SuppEdge=No   SuppFace=No   SubMesh=No
   Area=379052   MeshType="Number of Elements"   MeshGroup=ALL   Number1=3   Number2=3   LocalEdge=No   LocalFace=No   SuppEdge=No   SuppFace=No   SubMesh=No
   Area=379053   MeshType="Number of Elements"   MeshGroup=ALL   Number1=3   Number2=3   LocalEdge=No   LocalFace=No   SuppEdge=No   SuppFace=No   SubMesh=No
   Area=379054   MeshType="Number of Elements"   MeshGroup=ALL   Number1=3   Number2=3   LocalEdge=No   LocalFace=No   SuppEdge=No   SuppFace=No   SubMesh=No
   Area=379055   MeshType="Number of Elements"   MeshGroup=ALL   Number1=3   Number2=3   LocalEdge=No   LocalFace=No   SuppEdge=No   SuppFace=No   SubMesh=No
   Area=379056   MeshType="Number of Elements"   MeshGroup=ALL   Number1=3   Number2=3   LocalEdge=No   LocalFace=No   SuppEdge=No   SuppFace=No   SubMesh=No
   Area=379057   MeshType="Number of Elements"   MeshGroup=ALL   Number1=3   Number2=3   LocalEdge=No   LocalFace=No   SuppEdge=No   SuppFace=No   SubMesh=No
   Area=379058   MeshType="Number of Elements"   MeshGroup=ALL   Number1=3   Number2=3   LocalEdge=No   LocalFace=No   SuppEdge=No   SuppFace=No   SubMesh=No
   Area=379059   MeshType="Number of Elements"   MeshGroup=ALL   Number1=3   Number2=3   LocalEdge=No   LocalFace=No   SuppEdge=No   SuppFace=No   SubMesh=No
   Area=379060   MeshType="Number of Elements"   MeshGroup=ALL   Number1=3   Number2=3   LocalEdge=No   LocalFace=No   SuppEdge=No   SuppFace=No   SubMesh=No
   Area=379061   MeshType="Number of Elements"   MeshGroup=ALL   Number1=3   Number2=3   LocalEdge=No   LocalFace=No   SuppEdge=No   SuppFace=No   SubMesh=No
   Area=379062   MeshType="Number of Elements"   MeshGroup=ALL   Number1=3   Number2=3   LocalEdge=No   LocalFace=No   SuppEdge=No   SuppFace=No   SubMesh=No
   Area=379063   MeshType="Number of Elements"   MeshGroup=ALL   Number1=3   Number2=3   LocalEdge=No   LocalFace=No   SuppEdge=No   SuppFace=No   SubMesh=No
# ... 20 like lines cut
 
TABLE:  "AREA LOADS - UNIFORM"
   Area=379044   LoadPat=LL   CoordSys=GLOBAL   Dir=Gravity   UnifLoad=1.00034158457019
   Area=379045   LoadPat=LL   CoordSys=GLOBAL   Dir=Gravity   UnifLoad=1.00034158457019
   Area=379046   LoadPat=LL   CoordSys=GLOBAL   Dir=Gravity   UnifLoad=1.00034158457019
   Area=379047   LoadPat=LL   CoordSys=GLOBAL   Dir=Gravity   UnifLoad=1.00034158457019
   Area=379048   LoadPat=LL   CoordSys=GLOBAL   Dir=Gravity   UnifLoad=1.00034158457019
   Area=379049   LoadPat=LL   CoordSys=GLOBAL   Dir=Gravity   UnifLoad=1.00034158457019
   Area=379050   LoadPat=LL   CoordSys=GLOBAL   Dir=Gravity   UnifLoad=1.00034158457019
   Area=379051   LoadPat=LL   CoordSys=GLOBAL   Dir=Gravity   UnifLoad=1.00034158457019
   Area=379052   LoadPat=LL   CoordSys=GLOBAL   Dir=Gravity   UnifLoad=1.00034158457019
   Area=379053   LoadPat=LL   CoordSys=GLOBAL   Dir=Gravity   UnifLoad=1.00034158457019
   Area=379054   LoadPat=LL   CoordSys=GLOBAL   Dir=Gravity   UnifLoad=1.00034158457019
   Area=379055   LoadPat=LL   CoordSys=GLOBAL   Dir=Gravity   UnifLoad=1.00034158457019
   Area=379056   LoadPat=LL   CoordSys=GLOBAL   Dir=Gravity   UnifLoad=1.00034158457019
   Area=379057   LoadPat=LL   CoordSys=GLOBAL   Dir=Gravity   UnifLoad=1.00034158457019
   Area=379058   LoadPat=LL   CoordSys=GLOBAL   Dir=Gravity   UnifLoad=1.00034158457019
   Area=379059   LoadPat=LL   CoordSys=GLOBAL   Dir=Gravity   UnifLoad=1.00034158457019
   Area=379060   LoadPat=LL   CoordSys=GLOBAL   Dir=Gravity   UnifLoad=1.00034158457019
   Area=379061   LoadPat=LL   CoordSys=GLOBAL   Dir=Gravity   UnifLoad=1.00034158457019
   Area=379062   LoadPat=LL   CoordSys=GLOBAL   Dir=Gravity   UnifLoad=1.00034158457019
   Area=379063   LoadPat=LL   CoordSys=GLOBAL   Dir=Gravity   UnifLoad=1.00034158457019
# ... 20 like lines cut
 
TABLE:  "AREA SECTION ASSIGNMENTS"
   Area=379044   Section=Deck   MatProp=Default
   Area=379045   Section=Deck   MatProp=Default
   Area=379046   Section=Deck   MatProp=Default
   Area=379047   Section=Deck   MatProp=Default
   Area=379048   Section=Deck   MatProp=Default
   Area=379049   Section=Deck   MatProp=Default
   Area=379050   Section=Deck   MatProp=Default
   Area=379051   Section=Deck   MatProp=Default
   Area=379052   Section=Deck   MatProp=Default
   Area=379053   Section=Deck   MatProp=Default
   Area=379054   Section=Deck   MatProp=Default
   Area=379055   Section=Deck   MatProp=Default
   Area=379056   Section=Deck   MatProp=Default
   Area=379057   Section=Deck   MatProp=Default
   Area=379058   Section=Deck   MatProp=Default
   Area=379059   Section=Deck   MatProp=Default
   Area=379060   Section=Deck   MatProp=Default
   Area=379061   Section=Deck   MatProp=Default
   Area=379062   Section=Deck   MatProp=Default
   Area=379063   Section=Deck   MatProp=Default
# ... 20 like lines cut
 
TABLE:  "AREA SECTION PROPERTIES"
   Section=Deck   Material=BTCT   MatAngle=0   AreaType=Shell   Type=Shell-Thin   DrillDOF=Yes   Thickness=0.3   BendThick=0.3   Color=Green   F11Mod=1   F22Mod=1   F12Mod=1   M11Mod=1   M22Mod=1   M12Mod=1   V13Mod=1   V23Mod=1   MMod=1 _
        WMod=1   Notes="Added 24-Feb-23 16:56:47"
 
TABLE:  "AREA SECTION PROPERTY DESIGN PARAMETERS"
   Section=Deck   RebarMat=None   RebarOpt=Default
 
TABLE:  "AREA SECTION PROPERTY - TIME DEPENDENT"
   Section=Deck   TypeSize=User   AutoSFSize=1   UserValSize=0.1
 
TABLE:  "AUTO COMBINATION OPTION DATA 01 - GENERAL"
   DesignType=Concrete   AutoGen=Yes
 
TABLE:  "AUTO COMBINATION OPTION DATA 02 - USER DATA"
   DesignType=Concrete   LSType=Strength   LCName=DEAD
   DesignType=Concrete   LSType=Strength   LCName=LL
 
TABLE:  "AUTO WAVE 3 - WAVE CHARACTERISTICS - GENERAL"
   WaveChar=Default   WaveType="From Theory"   KinFactor=1   SWaterDepth=45   WaveHeight=18   WavePeriod=12   WaveTheory=Linear
 
TABLE:  "CASE - MODAL 1 - GENERAL"
   Case=MODAL   ModeType=Eigen   MaxNumModes=12   MinNumModes=1   EigenShift=0   EigenCutoff=0   EigenTol=1E-09   AutoShift=Yes
 
TABLE:  "CASE - STATIC 1 - LOAD ASSIGNMENTS"
   Case=DEAD   LoadType="Load pattern"   LoadName=DEAD   LoadSF=1
   Case=LL   LoadType="Load pattern"   LoadName=LL   LoadSF=1
 
TABLE:  "COMBINATION DEFINITIONS"
   ComboName=COMB1   ComboType="Linear Add"   AutoDesign=No   CaseName=DEAD   ScaleFactor=1   SteelDesign=None   ConcDesign=Strength   AlumDesign=None   ColdDesign=None
   ComboName=COMB2   ComboType="Linear Add"   AutoDesign=No   CaseName=DEAD   ScaleFactor=1   SteelDesign=None   ConcDesign=Strength   AlumDesign=None   ColdDesign=None
   ComboName=COMB2   CaseName=LL   ScaleFactor=1
   ComboName=BAO   ComboType=Envelope   AutoDesign=No   CaseName=COMB1   ScaleFactor=1   SteelDesign=None   ConcDesign=Strength   AlumDesign=None   ColdDesign=None
   ComboName=BAO   CaseName=COMB2   ScaleFactor=1
   ComboName=DCON1   ComboType="Linear Add"   AutoDesign=Yes   CaseName=DEAD   ScaleFactor=1.4   SteelDesign=None   ConcDesign=Strength   AlumDesign=None   ColdDesign=None   GUID=bb4fff9a-98b5-44d1-9fde-34d92700a8e9   Notes="Dead Only; Strength"
   ComboName=DCON2   ComboType="Linear Add"   AutoDesign=Yes   CaseName=DEAD   ScaleFactor=1.25   SteelDesign=None   ConcDesign=Strength   AlumDesign=None   ColdDesign=None   GUID=505bcda7-6fac-4dd0-b03e-c591d1ffc6ce   Notes="Dead + Live; Strength"
   ComboName=DCON2   CaseName=LL   ScaleFactor=1.5
 
TABLE:  "CONNECTIVITY - AREA"
   Area=379044   Joint1=1108741   Joint2=1108670   Joint3=1108629   Joint4=1108628   GUID=d4825f9d-5a12-4eff-819c-9007988377e0
   Area=379045   Joint1=1108628   Joint2=1108629   Joint3=1108631   Joint4=1108630   GUID=2bd8b2ff-9987-4252-b684-4811df870101
   Area=379046   Joint1=1108630   Joint2=1108631   Joint3=1108633   Joint4=1108632   GUID=60d01bc9-84aa-4695-b981-48093ae5e656
   Area=379047   Joint1=1108632   Joint2=1108633   Joint3=1108635   Joint4=1108634   GUID=7e2aeed6-81fd-4ea0-8bca-be0cd33a42c1
   Area=379048   Joint1=1108634   Joint2=1108635   Joint3=1108637   Joint4=1108636   GUID=e983151e-d22c-44e7-9bdb-77d5d8720a58
   Area=379049   Joint1=1108636   Joint2=1108637   Joint3=1108639   Joint4=1108638   GUID=ad3f0062-6db7-4c12-8b65-1b114c9efe5e
   Area=379050   Joint1=1108638   Joint2=1108639   Joint3=1108641   Joint4=1108640   GUID=4aa14d55-99e9-4b26-b6cf-4dec539e1a24
   Area=379051   Joint1=1108640   Joint2=1108641   Joint3=1108674   Joint4=1108742   GUID=a8543392-2e0b-4856-ad6b-53f6cf27830e
   Area=379052   Joint1=1108670   Joint2=1108671   Joint3=1108642   Joint4=1108629   GUID=a8aa76fd-7fc1-479a-807e-9f10db9a5d19
   Area=379053   Joint1=1108629   Joint2=1108642   Joint3=1108643   Joint4=1108631   GUID=f299f57b-8758-49c8-9f18-2d6b96a54a61
   Area=379054   Joint1=1108631   Joint2=1108643   Joint3=1108644   Joint4=1108633   GUID=e8aac032-786e-4a5a-86f5-9f9f379daaea
   Area=379055   Joint1=1108633   Joint2=1108644   Joint3=1108645   Joint4=1108635   GUID=679cdd36-6e23-4742-b90c-6661c000c51b
   Area=379056   Joint1=1108635   Joint2=1108645   Joint3=1108646   Joint4=1108637   GUID=cef2b66d-a668-4eea-8036-3b03df0dcb8b
   Area=379057   Joint1=1108637   Joint2=1108646   Joint3=1108647   Joint4=1108639   GUID=ec23eb28-adfa-4cec-8057-1e9558eebfea
   Area=379058   Joint1=1108639   Joint2=1108647   Joint3=1108648   Joint4=1108641   GUID=f95096a1-6d58-4842-b639-64e79004bc01
   Area=379059   Joint1=1108641   Joint2=1108648   Joint3=1108675   Joint4=1108674   GUID=dd7e9291-9d20-4cfa-b1f0-89940ac68ff7
   Area=379060   Joint1=1108671   Joint2=1108672   Joint3=1108649   Joint4=1108642   GUID=cd1e56da-3df9-4e52-8af6-ce1f697e198a
   Area=379061   Joint1=1108642   Joint2=1108649   Joint3=1108650   Joint4=1108643   GUID=77caeb5c-5bce-4b2b-bc92-463682ef96df
   Area=379062   Joint1=1108643   Joint2=1108650   Joint3=1108651   Joint4=1108644   GUID=1100db9c-3579-4629-963a-3e717d009e3b
   Area=379063   Joint1=1108644   Joint2=1108651   Joint3=1108652   Joint4=1108645   GUID=5f46a3b7-bdaa-48f5-a21e-5e78d65bde8f
   Area=379064   Joint1=1108645   Joint2=1108652   Joint3=1108653   Joint4=1108646   GUID=2e04c843-7f53-487c-91b2-6bcfaaa3c2e4
   Area=379065   Joint1=1108646   Joint2=1108653   Joint3=1108654   Joint4=1108647   GUID=a4fc4993-0f3d-466f-80c6-ae1a623e8bfe
   Area=379066   Joint1=1108647   Joint2=1108654   Joint3=1108655   Joint4=1108648   GUID=e124ec34-42e1-4dfc-9c21-ca9e42e3369a
   Area=379067   Joint1=1108648   Joint2=1108655   Joint3=1108676   Joint4=1108675   GUID=878f9fc8-efc8-4c7a-9f45-8b771a0add3f
   Area=379068   Joint1=1108672   Joint2=1108673   Joint3=1108656   Joint4=1108649   GUID=7a2aaad4-b74e-4b88-b7b9-0794c463a9f7
   Area=379069   Joint1=1108649   Joint2=1108656   Joint3=1108657   Joint4=1108650   GUID=dc2a303b-f49e-43c0-9a9e-60c1ba9c9057
   Area=379070   Joint1=1108650   Joint2=1108657   Joint3=1108658   Joint4=1108651   GUID=8910d55b-fea0-4b0e-8703-45d1240ca790
   Area=379071   Joint1=1108651   Joint2=1108658   Joint3=1108659   Joint4=1108652   GUID=c438be4f-0d26-466f-b5da-b44e46d381ac
   Area=379072   Joint1=1108652   Joint2=1108659   Joint3=1108660   Joint4=1108653   GUID=411b9954-ec55-4605-89b4-b17b44569be9
   Area=379073   Joint1=1108653   Joint2=1108660   Joint3=1108661   Joint4=1108654   GUID=6a8be7c0-d005-4dc8-8991-2eaeb9e875f5
   Area=379074   Joint1=1108654   Joint2=1108661   Joint3=1108662   Joint4=1108655   GUID=533c50ab-b8c7-407c-b2f3-784dc79a4ca1
   Area=379075   Joint1=1108655   Joint2=1108662   Joint3=1108677   Joint4=1108676   GUID=234cc7d2-59b6-495b-9f4f-644371386962
   Area=379076   Joint1=1108673   Joint2=1108743   Joint3=1108663   Joint4=1108656   GUID=d3a22643-e529-43e8-a0e6-f82f7d56cbbb
   Area=379077   Joint1=1108656   Joint2=1108663   Joint3=1108664   Joint4=1108657   GUID=07f9cd64-489e-46a8-ad56-1a1f0b2470f1
   Area=379078   Joint1=1108657   Joint2=1108664   Joint3=1108665   Joint4=1108658   GUID=d54340f3-47cc-4b0e-8716-4e149a49a694
   Area=379079   Joint1=1108658   Joint2=1108665   Joint3=1108666   Joint4=1108659   GUID=7b5bb303-7339-495a-85ad-e9977d873f88
   Area=379080   Joint1=1108659   Joint2=1108666   Joint3=1108667   Joint4=1108660   GUID=7fc02eac-8732-4389-abb8-cae67ce602cb
   Area=379081   Joint1=1108660   Joint2=1108667   Joint3=1108668   Joint4=1108661   GUID=4758ea8f-8aad-4bb1-9e73-1953d3c4ad14
   Area=379082   Joint1=1108661   Joint2=1108668   Joint3=1108669   Joint4=1108662   GUID=f2814067-b096-46f5-8848-842f68b46ba2
   Area=379083   Joint1=1108662   Joint2=1108669   Joint3=1108744   Joint4=1108677   GUID=e7c07df1-99c0-4ff0-a9e2-52b5678209c7
 
TABLE:  "CONNECTIVITY - FRAME"
   Frame=1287065   JointI=1108628   JointJ=1108629   IsCurved=No   GUID=77c1f073-d46f-4aaf-8161-a15b84eadfea
   Frame=1287066   JointI=1108630   JointJ=1108631   IsCurved=No   GUID=462eaa8a-2926-4037-923c-349c2283e8e1
   Frame=1287067   JointI=1108632   JointJ=1108633   IsCurved=No   GUID=a20babc5-2b2d-4549-8e35-9c843052f6a9
   Frame=1287068   JointI=1108634   JointJ=1108635   IsCurved=No   GUID=cba6b718-dd72-45d0-9076-57b06137a0bf
   Frame=1287069   JointI=1108636   JointJ=1108637   IsCurved=No   GUID=94ccaa80-91bc-4323-a188-967ecb58ed1b
   Frame=1287070   JointI=1108638   JointJ=1108639   IsCurved=No   GUID=1bc21fc0-3901-4b8b-81f9-7f2c0200fc5e
   Frame=1287071   JointI=1108640   JointJ=1108641   IsCurved=No   GUID=6d704ba7-4d06-4563-87e4-84a830a5ba17
   Frame=1287072   JointI=1108629   JointJ=1108642   IsCurved=No   GUID=618956d7-0354-4fa8-a317-46e0fb90b3e9
   Frame=1287073   JointI=1108631   JointJ=1108643   IsCurved=No   GUID=9be01286-7bf5-4a6d-b9ee-c04115f30fb2
   Frame=1287074   JointI=1108633   JointJ=1108644   IsCurved=No   GUID=d77d13f5-8862-430b-9491-74e12deff620
   Frame=1287075   JointI=1108635   JointJ=1108645   IsCurved=No   GUID=e1118d9d-c124-4bd9-83ef-06aecca2c459
   Frame=1287076   JointI=1108637   JointJ=1108646   IsCurved=No   GUID=e802fb37-cbeb-4338-a8e6-7fc0ca90fdc0
   Frame=1287077   JointI=1108639   JointJ=1108647   IsCurved=No   GUID=56055657-8755-4d68-961e-3a929e1cc42b
   Frame=1287078   JointI=1108641   JointJ=1108648   IsCurved=No   GUID=948725e4-822c-40e9-b822-f366441b6a20
   Frame=1287079   JointI=1108642   JointJ=1108649   IsCurved=No   GUID=80b384ba-f3f1-4c4c-b212-8319b8c2f52f
   Frame=1287080   JointI=1108643   JointJ=1108650   IsCurved=No   GUID=e573c9f6-4be9-498b-830f-8b971874b7d1
   Frame=1287081   JointI=1108644   JointJ=1108651   IsCurved=No   GUID=3d6ba64b-c419-4804-832f-ec095c9103bf
   Frame=1287082   JointI=1108645   JointJ=1108652   IsCurved=No   GUID=ad02320e-843b-455a-816c-b67d10b0ae1a
   Frame=1287083   JointI=1108646   JointJ=1108653   IsCurved=No   GUID=eaab105b-6458-46be-9838-279e7f6ad2c8
   Frame=1287084   JointI=1108647   JointJ=1108654   IsCurved=No   GUID=7bae7822-ec2e-4781-92a8-3492e329c84d
   Frame=1287085   JointI=1108648   JointJ=1108655   IsCurved=No   GUID=a48eded9-b457-423a-a1d0-a3afcbd7a6d3
   Frame=1287086   JointI=1108649   JointJ=1108656   IsCurved=No   GUID=f88a885c-d3c7-4f16-9896-23410b8982b0
   Frame=1287087   JointI=1108650   JointJ=1108657   IsCurved=No   GUID=392b85aa-0b5d-4361-abaa-98989cac47f7
   Frame=1287088   JointI=1108651   JointJ=1108658   IsCurved=No   GUID=50531726-2da8-4d69-a7ce-77cd72ed9ebd
   Frame=1287089   JointI=1108652   JointJ=1108659   IsCurved=No   GUID=b61bd9c6-6613-4ead-a0e7-8ec6dc4f9422
   Frame=1287090   JointI=1108653   JointJ=1108660   IsCurved=No   GUID=ca6966d1-4875-4654-b5ef-c74670978403
   Frame=1287091   JointI=1108654   JointJ=1108661   IsCurved=No   GUID=2521e1a8-07f2-41ca-a8ad-1b0f9b707bf1
   Frame=1287092   JointI=1108655   JointJ=1108662   IsCurved=No   GUID=eebae8ce-edf8-458b-9cd9-88e166cf9e8a
   Frame=1287093   JointI=1108656   JointJ=1108663   IsCurved=No   GUID=ad2d679a-a9d9-4807-a1c1-31bcbba12042
   Frame=1287094   JointI=1108657   JointJ=1108664   IsCurved=No   GUID=86df0abd-809e-4526-8b76-c4146dade818
   Frame=1287095   JointI=1108658   JointJ=1108665   IsCurved=No   GUID=1e393641-2d3f-4774-acc8-ff8aff9f752e
   Frame=1287096   JointI=1108659   JointJ=1108666   IsCurved=No   GUID=1aa842e7-795b-4284-be0a-623e064bef8b
   Frame=1287097   JointI=1108660   JointJ=1108667   IsCurved=No   GUID=e5e1c404-ae05-4306-966e-ae91afe3ed00
   Frame=1287098   JointI=1108661   JointJ=1108668   IsCurved=No   GUID=3d0f0be7-58f6-46b7-a22f-61684e74b712
   Frame=1287099   JointI=1108662   JointJ=1108669   IsCurved=No   GUID=4dc4c31c-4850-48f3-bc37-ef3871481f20
   Frame=1287100   JointI=1108670   JointJ=1108629   IsCurved=No   GUID=dcaa03ac-d7af-4d43-bbc1-bb4b56a586c5
   Frame=1287101   JointI=1108671   JointJ=1108642   IsCurved=No   GUID=c96bfb55-f768-4f98-a7a8-cc007d9b57eb
   Frame=1287102   JointI=1108672   JointJ=1108649   IsCurved=No   GUID=5e3b43c0-3231-45f3-86cf-dfcf1c4b883b
   Frame=1287103   JointI=1108673   JointJ=1108656   IsCurved=No   GUID=c59ad2d8-8839-41c3-a3f3-35d437de5784
   Frame=1287104   JointI=1108629   JointJ=1108631   IsCurved=No   GUID=0819575d-d351-4e76-b87f-76b6d39c7b28
   Frame=1287105   JointI=1108642   JointJ=1108643   IsCurved=No   GUID=566d5c69-b3c8-4c1e-a206-7127a7902f1a
   Frame=1287106   JointI=1108649   JointJ=1108650   IsCurved=No   GUID=0227ac9b-9b3b-4053-b11a-9f569b340ef4
   Frame=1287107   JointI=1108656   JointJ=1108657   IsCurved=No   GUID=b367b4b2-9032-4718-aa4a-a30d539399cd
   Frame=1287108   JointI=1108631   JointJ=1108633   IsCurved=No   GUID=a1b67169-4ef3-4eb8-b67b-97321a84415c
   Frame=1287109   JointI=1108643   JointJ=1108644   IsCurved=No   GUID=9dda60c6-ca47-406e-b9d8-d7ec9fb283fe
   Frame=1287110   JointI=1108650   JointJ=1108651   IsCurved=No   GUID=1222f6e6-80a1-4e44-a076-8f998b51f6f1
   Frame=1287111   JointI=1108657   JointJ=1108658   IsCurved=No   GUID=f3ba6537-4da1-440a-bc16-feb247f80c7e
   Frame=1287112   JointI=1108633   JointJ=1108635   IsCurved=No   GUID=e475cd56-042a-4420-82cd-0fe3b03ff828
   Frame=1287113   JointI=1108644   JointJ=1108645   IsCurved=No   GUID=738cef2c-4886-4d9b-8331-1a90f9aa9a4f
   Frame=1287114   JointI=1108651   JointJ=1108652   IsCurved=No   GUID=db832780-e827-48a8-9f1f-1d8c79fea7c0
   Frame=1287115   JointI=1108658   JointJ=1108659   IsCurved=No   GUID=d42d0c56-6832-4b51-a8f5-431a4e30e05b
   Frame=1287116   JointI=1108635   JointJ=1108637   IsCurved=No   GUID=c5eee2fb-1968-444c-9704-18e5be357a1c
   Frame=1287117   JointI=1108645   JointJ=1108646   IsCurved=No   GUID=0cfa8ef6-383e-4990-af26-75380ff38343
   Frame=1287118   JointI=1108652   JointJ=1108653   IsCurved=No   GUID=0092a252-0796-4057-872f-6f1d1379d4a3
   Frame=1287119   JointI=1108659   JointJ=1108660   IsCurved=No   GUID=8abd0894-2717-416d-b187-9c1a25d63786
   Frame=1287120   JointI=1108637   JointJ=1108639   IsCurved=No   GUID=2f4ed6b4-e062-4475-a5bb-c5acb461237f
   Frame=1287121   JointI=1108646   JointJ=1108647   IsCurved=No   GUID=d135b399-12bb-4e2c-9c36-25c1224bd72b
   Frame=1287122   JointI=1108653   JointJ=1108654   IsCurved=No   GUID=d48db44f-3fc5-4249-adce-a28a46f5ef9a
   Frame=1287123   JointI=1108660   JointJ=1108661   IsCurved=No   GUID=e49456cc-618f-4e00-98a3-88a912b17924
   Frame=1287124   JointI=1108639   JointJ=1108641   IsCurved=No   GUID=9a313261-a4b4-4b44-81cc-2a818e8aca64
   Frame=1287125   JointI=1108647   JointJ=1108648   IsCurved=No   GUID=34f85cd6-2461-4224-8bb8-a317d2ff4319
   Frame=1287126   JointI=1108654   JointJ=1108655   IsCurved=No   GUID=48ad19db-d62e-48ce-93da-f1604945fb53
   Frame=1287127   JointI=1108661   JointJ=1108662   IsCurved=No   GUID=d46eec5b-13d4-470c-b968-415e690a461f
   Frame=1287128   JointI=1108641   JointJ=1108674   IsCurved=No   GUID=292d626f-0ab0-498a-8587-a3e40476ba69
   Frame=1287129   JointI=1108648   JointJ=1108675   IsCurved=No   GUID=7a7dfaee-34a5-447f-af02-ffbf43505b13
   Frame=1287130   JointI=1108655   JointJ=1108676   IsCurved=No   GUID=0b4fe5b8-5e08-457f-a7b9-c5ca0dac2b92
   Frame=1287131   JointI=1108662   JointJ=1108677   IsCurved=No   GUID=811acfad-320e-4b87-bb47-b8c2b6ba96ca
   Frame=1287132   JointI=1108629   JointJ=1108678   IsCurved=No   GUID=f24dad0e-14b9-4afe-8ca4-ae8ce89868bd
   Frame=1287133   JointI=1108678   JointJ=1108679   IsCurved=No   GUID=6afe42bc-7735-4de6-be7e-da35c9ee377b
   Frame=1287134   JointI=1108679   JointJ=1108680   IsCurved=No   GUID=f7e55f20-532a-4a1f-9be0-afaed2422fef
   Frame=1287135   JointI=1108631   JointJ=1108681   IsCurved=No   GUID=0940368f-e713-49c1-a59f-9a846f1869c8
   Frame=1287136   JointI=1108681   JointJ=1108682   IsCurved=No   GUID=64fc22ed-b90a-467f-a8bc-f6f84d813975
   Frame=1287137   JointI=1108682   JointJ=1108683   IsCurved=No   GUID=f0331a1a-708c-4c35-99d7-6fd59f25e81c
   Frame=1287138   JointI=1108633   JointJ=1108684   IsCurved=No   GUID=4d8b109d-c0d7-4074-b7a0-0cb02842042c
   Frame=1287139   JointI=1108684   JointJ=1108685   IsCurved=No   GUID=4c602f51-271d-47ba-9e5c-f58aa562915b
   Frame=1287140   JointI=1108685   JointJ=1108686   IsCurved=No   GUID=34791808-5e86-4001-a70b-f27b9a236e2c
   Frame=1287141   JointI=1108635   JointJ=1108687   IsCurved=No   GUID=bd7fcfcf-7b1e-4da2-acb9-85348f776814
   Frame=1287142   JointI=1108687   JointJ=1108688   IsCurved=No   GUID=34ccaa86-8a00-4ff8-bc92-f35228f36e2d
   Frame=1287143   JointI=1108688   JointJ=1108689   IsCurved=No   GUID=e164838a-ec79-4a4b-98a2-5af3d0ff51a5
   Frame=1287144   JointI=1108637   JointJ=1108690   IsCurved=No   GUID=43e4f44a-bb2f-4030-87a0-6641e13a3797
   Frame=1287145   JointI=1108690   JointJ=1108691   IsCurved=No   GUID=6e906257-e976-4362-bb81-18b58bc4cc04
   Frame=1287146   JointI=1108691   JointJ=1108692   IsCurved=No   GUID=ba11327a-1848-481b-804f-191b4944847e
   Frame=1287147   JointI=1108639   JointJ=1108693   IsCurved=No   GUID=4f3549e4-b496-42db-a97c-98c4b402899b
   Frame=1287148   JointI=1108693   JointJ=1108694   IsCurved=No   GUID=1620c590-3b80-4a10-89d0-89c03d9f73b4
   Frame=1287149   JointI=1108694   JointJ=1108695   IsCurved=No   GUID=a8fbd694-9d05-4d6c-b52e-b7321781db7c
   Frame=1287150   JointI=1108641   JointJ=1108696   IsCurved=No   GUID=aeb7f0b5-928d-40f1-911d-32bab7456250
   Frame=1287151   JointI=1108696   JointJ=1108697   IsCurved=No   GUID=fd8ff969-635d-46e5-9fec-49ff272b9805
   Frame=1287152   JointI=1108697   JointJ=1108698   IsCurved=No   GUID=cf1e67f3-cdd7-41b7-987e-cb6aa9fa466b
   Frame=1287153   JointI=1108642   JointJ=1108699   IsCurved=No   GUID=8e4c4cb9-586c-49d7-baa0-31d5b725e8dd
   Frame=1287154   JointI=1108699   JointJ=1108700   IsCurved=No   GUID=16c20fd7-8b77-4d20-abf0-06eecd9c49a0
   Frame=1287155   JointI=1108643   JointJ=1108701   IsCurved=No   GUID=bc56180d-a20d-429d-add0-426c5500aacb
   Frame=1287156   JointI=1108701   JointJ=1108702   IsCurved=No   GUID=6bc3d25e-784d-4b46-a0a8-48710214cdb4
   Frame=1287157   JointI=1108644   JointJ=1108703   IsCurved=No   GUID=4ffe5698-d71c-441f-a3e4-91d23932985e
   Frame=1287158   JointI=1108703   JointJ=1108704   IsCurved=No   GUID=a7185dce-c10c-4127-a6a7-8c05f67b8916
   Frame=1287159   JointI=1108645   JointJ=1108705   IsCurved=No   GUID=bba46b72-24da-4932-8b6e-e5319037f1cf
   Frame=1287160   JointI=1108705   JointJ=1108706   IsCurved=No   GUID=bdf79837-9672-470a-b48b-026f4abf6fbe
   Frame=1287161   JointI=1108646   JointJ=1108707   IsCurved=No   GUID=e4f1935c-90c6-4b50-a9d2-25a3a9629344
   Frame=1287162   JointI=1108707   JointJ=1108708   IsCurved=No   GUID=6b26d1cd-b686-4873-909f-911afdfa869a
   Frame=1287163   JointI=1108647   JointJ=1108709   IsCurved=No   GUID=7b79079f-2835-4993-a94c-24afccc31df7
   Frame=1287164   JointI=1108709   JointJ=1108710   IsCurved=No   GUID=a498abaa-c297-4dab-9599-59800b78a427
   Frame=1287165   JointI=1108648   JointJ=1108711   IsCurved=No   GUID=f84f1bd8-4755-42eb-b023-d72f27001d53
   Frame=1287166   JointI=1108711   JointJ=1108712   IsCurved=No   GUID=2d115b1f-163d-40db-b11d-932ff0247150
   Frame=1287167   JointI=1108649   JointJ=1108713   IsCurved=No   GUID=98d17507-adcd-4efe-8ba4-d03b3dcf5374
   Frame=1287168   JointI=1108713   JointJ=1108714   IsCurved=No   GUID=698039d2-614e-4ec4-beac-2971d376acfd
   Frame=1287169   JointI=1108650   JointJ=1108715   IsCurved=No   GUID=af4235e0-9a45-4a3b-8f40-a678cc390673
   Frame=1287170   JointI=1108715   JointJ=1108716   IsCurved=No   GUID=5e487948-3abc-44d2-b8d0-cea731add152
   Frame=1287171   JointI=1108651   JointJ=1108717   IsCurved=No   GUID=c7d8fdf2-7d84-4b80-84d3-3e9f1909aec7
   Frame=1287172   JointI=1108717   JointJ=1108718   IsCurved=No   GUID=1e76acd1-0330-46fb-91c8-25d03d1c6008
   Frame=1287173   JointI=1108652   JointJ=1108719   IsCurved=No   GUID=358ae71b-5256-445d-ba6a-ad0778634dc8
   Frame=1287174   JointI=1108719   JointJ=1108720   IsCurved=No   GUID=14e53800-a500-4477-bf4b-b134f109d493
   Frame=1287175   JointI=1108653   JointJ=1108721   IsCurved=No   GUID=ffa35dce-3165-408a-9b6b-c5861d575d2a
   Frame=1287176   JointI=1108721   JointJ=1108722   IsCurved=No   GUID=c70f3393-0291-4807-8c06-c88a1aec19bc
   Frame=1287177   JointI=1108654   JointJ=1108723   IsCurved=No   GUID=d1367fce-d70b-46bb-8e19-68e24c9c1abc
   Frame=1287178   JointI=1108723   JointJ=1108724   IsCurved=No   GUID=7fb6ba55-8a59-420a-b108-7359a399e0a1
   Frame=1287179   JointI=1108655   JointJ=1108725   IsCurved=No   GUID=3594a568-8cf2-47e7-91f7-eba1bf3ce6e0
   Frame=1287180   JointI=1108725   JointJ=1108726   IsCurved=No   GUID=a8287587-2edf-4c76-ac25-6ff97ca0875e
   Frame=1287181   JointI=1108656   JointJ=1108727   IsCurved=No   GUID=212fb10f-daa8-41d5-b0af-9c9eb76aeef6
   Frame=1287182   JointI=1108727   JointJ=1108728   IsCurved=No   GUID=df98b2e4-e002-4ee7-8290-df718ded1948
   Frame=1287183   JointI=1108657   JointJ=1108729   IsCurved=No   GUID=c55929bf-4aa5-4329-b35a-555a05e71944
   Frame=1287184   JointI=1108729   JointJ=1108730   IsCurved=No   GUID=f4a4d267-f895-457c-af9e-020ac2cd134e
   Frame=1287185   JointI=1108658   JointJ=1108731   IsCurved=No   GUID=c20004c0-9d8a-459f-8d8d-958427cde1e5
   Frame=1287186   JointI=1108731   JointJ=1108732   IsCurved=No   GUID=1edb01ea-e0e5-45da-ba3b-1e17c5011161
   Frame=1287187   JointI=1108659   JointJ=1108733   IsCurved=No   GUID=100eff6e-e0e4-4863-94f8-1b401cb3d122
   Frame=1287188   JointI=1108733   JointJ=1108734   IsCurved=No   GUID=c81ca8e0-4e3a-4885-9995-05adedb0834b
   Frame=1287189   JointI=1108660   JointJ=1108735   IsCurved=No   GUID=b3e3ff68-ac31-44d9-85eb-3186adf66dff
   Frame=1287190   JointI=1108735   JointJ=1108736   IsCurved=No   GUID=dc4c9dd2-d83f-4690-b6b0-547349c5d694
   Frame=1287191   JointI=1108661   JointJ=1108737   IsCurved=No   GUID=3e731628-bcf3-4643-b779-aef39aa0b3a0
   Frame=1287192   JointI=1108737   JointJ=1108738   IsCurved=No   GUID=0228eb97-a0b3-40aa-849a-3c6780afb6b2
   Frame=1287193   JointI=1108662   JointJ=1108739   IsCurved=No   GUID=86fe8ea1-74c4-48c6-8131-04147f83b419
   Frame=1287194   JointI=1108739   JointJ=1108740   IsCurved=No   GUID=6eab9aea-c967-4715-84b0-c5e99bb98dba
   Frame=1287195   JointI=1108678   JointJ=1108681   IsCurved=No   GUID=c635e76b-d62e-48f3-9674-812daa183cb8
   Frame=1287196   JointI=1108681   JointJ=1108684   IsCurved=No   GUID=4c9b41c7-6865-4b45-beb9-c6a7a636cfc1
   Frame=1287197   JointI=1108684   JointJ=1108687   IsCurved=No   GUID=3185208d-3108-4a48-893d-e54a2a696f22
   Frame=1287198   JointI=1108687   JointJ=1108690   IsCurved=No   GUID=ac749bd1-0797-48e7-a20c-da1f42d8dcc4
   Frame=1287199   JointI=1108690   JointJ=1108693   IsCurved=No   GUID=230b02e1-c438-4319-ae85-56c0bee182b5
   Frame=1287200   JointI=1108693   JointJ=1108696   IsCurved=No   GUID=101f6aeb-0a2d-43f7-a2ec-af8a19420961
 
TABLE:  "COORDINATE SYSTEMS"
   Name=GLOBAL   Type=Cartesian   X=0   Y=0   Z=0   AboutZ=0   AboutY=0   AboutX=0
 
TABLE:  "DATABASE DOCUMENTATION"
 
TABLE:  "DATABASE FORMAT TYPES"
   UnitsCurr=Yes   OverrideE=No
 
TABLE:  "FRAME AUTO MESH ASSIGNMENTS"
   Frame=1287065   AutoMesh=Yes   AtJoints=Yes   AtFrames=No   NumSegments=0   MaxLength=0   MaxDegrees=0
   Frame=1287066   AutoMesh=Yes   AtJoints=Yes   AtFrames=No   NumSegments=0   MaxLength=0   MaxDegrees=0
   Frame=1287067   AutoMesh=Yes   AtJoints=Yes   AtFrames=No   NumSegments=0   MaxLength=0   MaxDegrees=0
   Frame=1287068   AutoMesh=Yes   AtJoints=Yes   AtFrames=No   NumSegments=0   MaxLength=0   MaxDegrees=0
   Frame=1287069   AutoMesh=Yes   AtJoints=Yes   AtFrames=No   NumSegments=0   MaxLength=0   MaxDegrees=0
   Frame=1287070   AutoMesh=Yes   AtJoints=Yes   AtFrames=No   NumSegments=0   MaxLength=0   MaxDegrees=0
   Frame=1287071   AutoMesh=Yes   AtJoints=Yes   AtFrames=No   NumSegments=0   MaxLength=0   MaxDegrees=0
   Frame=1287072   AutoMesh=Yes   AtJoints=Yes   AtFrames=No   NumSegments=0   MaxLength=0   MaxDegrees=0
   Frame=1287073   AutoMesh=Yes   AtJoints=Yes   AtFrames=No   NumSegments=0   MaxLength=0   MaxDegrees=0
   Frame=1287074   AutoMesh=Yes   AtJoints=Yes   AtFrames=No   NumSegments=0   MaxLength=0   MaxDegrees=0
   Frame=1287075   AutoMesh=Yes   AtJoints=Yes   AtFrames=No   NumSegments=0   MaxLength=0   MaxDegrees=0
   Frame=1287076   AutoMesh=Yes   AtJoints=Yes   AtFrames=No   NumSegments=0   MaxLength=0   MaxDegrees=0
   Frame=1287077   AutoMesh=Yes   AtJoints=Yes   AtFrames=No   NumSegments=0   MaxLength=0   MaxDegrees=0
   Frame=1287078   AutoMesh=Yes   AtJoints=Yes   AtFrames=No   NumSegments=0   MaxLength=0   MaxDegrees=0
   Frame=1287079   AutoMesh=Yes   AtJoints=Yes   AtFrames=No   NumSegments=0   MaxLength=0   MaxDegrees=0
   Frame=1287080   AutoMesh=Yes   AtJoints=Yes   AtFrames=No   NumSegments=0   MaxLength=0   MaxDegrees=0
   Frame=1287081   AutoMesh=Yes   AtJoints=Yes   AtFrames=No   NumSegments=0   MaxLength=0   MaxDegrees=0
   Frame=1287082   AutoMesh=Yes   AtJoints=Yes   AtFrames=No   NumSegments=0   MaxLength=0   MaxDegrees=0
   Frame=1287083   AutoMesh=Yes   AtJoints=Yes   AtFrames=No   NumSegments=0   MaxLength=0   MaxDegrees=0
   Frame=1287084   AutoMesh=Yes   AtJoints=Yes   AtFrames=No   NumSegments=0   MaxLength=0   MaxDegrees=0
# ... 116 like lines cut
 
TABLE:  "FRAME DESIGN PROCEDURES"
   Frame=1287065   DesignProc="From Material"
   Frame=1287066   DesignProc="From Material"
   Frame=1287067   DesignProc="From Material"
   Frame=1287068   DesignProc="From Material"
   Frame=1287069   DesignProc="From Material"
   Frame=1287070   DesignProc="From Material"
   Frame=1287071   DesignProc="From Material"
   Frame=1287072   DesignProc="From Material"
   Frame=1287073   DesignProc="From Material"
   Frame=1287074   DesignProc="From Material"
   Frame=1287075   DesignProc="From Material"
   Frame=1287076   DesignProc="From Material"
   Frame=1287077   DesignProc="From Material"
   Frame=1287078   DesignProc="From Material"
   Frame=1287079   DesignProc="From Material"
   Frame=1287080   DesignProc="From Material"
   Frame=1287081   DesignProc="From Material"
   Frame=1287082   DesignProc="From Material"
   Frame=1287083   DesignProc="From Material"
   Frame=1287084   DesignProc="From Material"
# ... 48 like lines cut
   Frame=1287133   DesignProc="No Design"
   Frame=1287134   DesignProc="No Design"
   Frame=1287135   DesignProc="From Material"
   Frame=1287136   DesignProc="No Design"
   Frame=1287137   DesignProc="No Design"
   Frame=1287138   DesignProc="From Material"
   Frame=1287139   DesignProc="No Design"
   Frame=1287140   DesignProc="No Design"
   Frame=1287141   DesignProc="From Material"
   Frame=1287142   DesignProc="No Design"
   Frame=1287143   DesignProc="No Design"
   Frame=1287144   DesignProc="From Material"
   Frame=1287145   DesignProc="No Design"
   Frame=1287146   DesignProc="No Design"
   Frame=1287147   DesignProc="From Material"
   Frame=1287148   DesignProc="No Design"
   Frame=1287149   DesignProc="No Design"
   Frame=1287150   DesignProc="From Material"
   Frame=1287151   DesignProc="No Design"
   Frame=1287152   DesignProc="No Design"
   Frame=1287153   DesignProc="No Design"
   Frame=1287154   DesignProc="No Design"
   Frame=1287155   DesignProc="No Design"
   Frame=1287156   DesignProc="No Design"
   Frame=1287157   DesignProc="No Design"
   Frame=1287158   DesignProc="No Design"
   Frame=1287159   DesignProc="No Design"
   Frame=1287160   DesignProc="No Design"
   Frame=1287161   DesignProc="No Design"
   Frame=1287162   DesignProc="No Design"
   Frame=1287163   DesignProc="No Design"
   Frame=1287164   DesignProc="No Design"
   Frame=1287165   DesignProc="No Design"
   Frame=1287166   DesignProc="No Design"
   Frame=1287167   DesignProc="No Design"
   Frame=1287168   DesignProc="No Design"
   Frame=1287169   DesignProc="No Design"
   Frame=1287170   DesignProc="No Design"
# ... 24 like lines cut
   Frame=1287195   DesignProc="From Material"
   Frame=1287196   DesignProc="From Material"
   Frame=1287197   DesignProc="From Material"
   Frame=1287198   DesignProc="From Material"
   Frame=1287199   DesignProc="From Material"
   Frame=1287200   DesignProc="From Material"
 
TABLE:  "FRAME LOAD TRANSFER OPTIONS"
   Frame=1287065   Transfer=Yes
   Frame=1287066   Transfer=Yes
   Frame=1287067   Transfer=Yes
   Frame=1287068   Transfer=Yes
   Frame=1287069   Transfer=Yes
   Frame=1287070   Transfer=Yes
   Frame=1287071   Transfer=Yes
   Frame=1287072   Transfer=Yes
   Frame=1287073   Transfer=Yes
   Frame=1287074   Transfer=Yes
   Frame=1287075   Transfer=Yes
   Frame=1287076   Transfer=Yes
   Frame=1287077   Transfer=Yes
   Frame=1287078   Transfer=Yes
   Frame=1287079   Transfer=Yes
   Frame=1287080   Transfer=Yes
   Frame=1287081   Transfer=Yes
   Frame=1287082   Transfer=Yes
   Frame=1287083   Transfer=Yes
   Frame=1287084   Transfer=Yes
# ... 116 like lines cut
 
TABLE:  "FRAME LOCAL AXES ASSIGNMENTS 1 - TYPICAL"
   Frame=1287132   Angle=90
   Frame=1287135   Angle=90
   Frame=1287138   Angle=90
   Frame=1287141   Angle=90
   Frame=1287144   Angle=90
   Frame=1287147   Angle=90
   Frame=1287150   Angle=90
 
TABLE:  "FRAME OUTPUT STATION ASSIGNMENTS"
   Frame=1287065   StationType=MaxStaSpcg   MaxStaSpcg=0.5   AddAtElmInt=Yes   AddAtPtLoad=Yes
   Frame=1287066   StationType=MaxStaSpcg   MaxStaSpcg=0.5   AddAtElmInt=Yes   AddAtPtLoad=Yes
   Frame=1287067   StationType=MaxStaSpcg   MaxStaSpcg=0.5   AddAtElmInt=Yes   AddAtPtLoad=Yes
   Frame=1287068   StationType=MaxStaSpcg   MaxStaSpcg=0.5   AddAtElmInt=Yes   AddAtPtLoad=Yes
   Frame=1287069   StationType=MaxStaSpcg   MaxStaSpcg=0.5   AddAtElmInt=Yes   AddAtPtLoad=Yes
   Frame=1287070   StationType=MaxStaSpcg   MaxStaSpcg=0.5   AddAtElmInt=Yes   AddAtPtLoad=Yes
   Frame=1287071   StationType=MaxStaSpcg   MaxStaSpcg=0.5   AddAtElmInt=Yes   AddAtPtLoad=Yes
   Frame=1287072   StationType=MaxStaSpcg   MaxStaSpcg=0.5   AddAtElmInt=Yes   AddAtPtLoad=Yes
   Frame=1287073   StationType=MaxStaSpcg   MaxStaSpcg=0.5   AddAtElmInt=Yes   AddAtPtLoad=Yes
   Frame=1287074   StationType=MaxStaSpcg   MaxStaSpcg=0.5   AddAtElmInt=Yes   AddAtPtLoad=Yes
   Frame=1287075   StationType=MaxStaSpcg   MaxStaSpcg=0.5   AddAtElmInt=Yes   AddAtPtLoad=Yes
   Frame=1287076   StationType=MaxStaSpcg   MaxStaSpcg=0.5   AddAtElmInt=Yes   AddAtPtLoad=Yes
   Frame=1287077   StationType=MaxStaSpcg   MaxStaSpcg=0.5   AddAtElmInt=Yes   AddAtPtLoad=Yes
   Frame=1287078   StationType=MaxStaSpcg   MaxStaSpcg=0.5   AddAtElmInt=Yes   AddAtPtLoad=Yes
   Frame=1287079   StationType=MaxStaSpcg   MaxStaSpcg=0.5   AddAtElmInt=Yes   AddAtPtLoad=Yes
   Frame=1287080   StationType=MaxStaSpcg   MaxStaSpcg=0.5   AddAtElmInt=Yes   AddAtPtLoad=Yes
   Frame=1287081   StationType=MaxStaSpcg   MaxStaSpcg=0.5   AddAtElmInt=Yes   AddAtPtLoad=Yes
   Frame=1287082   StationType=MaxStaSpcg   MaxStaSpcg=0.5   AddAtElmInt=Yes   AddAtPtLoad=Yes
   Frame=1287083   StationType=MaxStaSpcg   MaxStaSpcg=0.5   AddAtElmInt=Yes   AddAtPtLoad=Yes
   Frame=1287084   StationType=MaxStaSpcg   MaxStaSpcg=0.5   AddAtElmInt=Yes   AddAtPtLoad=Yes
# ... 47 like lines cut
   Frame=1287132   StationType=MinNumSta   MinNumSta=3   AddAtElmInt=Yes   AddAtPtLoad=Yes
   Frame=1287133   StationType=MinNumSta   MinNumSta=3   AddAtElmInt=Yes   AddAtPtLoad=Yes
   Frame=1287134   StationType=MinNumSta   MinNumSta=3   AddAtElmInt=Yes   AddAtPtLoad=Yes
   Frame=1287135   StationType=MinNumSta   MinNumSta=3   AddAtElmInt=Yes   AddAtPtLoad=Yes
   Frame=1287136   StationType=MinNumSta   MinNumSta=3   AddAtElmInt=Yes   AddAtPtLoad=Yes
   Frame=1287137   StationType=MinNumSta   MinNumSta=3   AddAtElmInt=Yes   AddAtPtLoad=Yes
   Frame=1287138   StationType=MinNumSta   MinNumSta=3   AddAtElmInt=Yes   AddAtPtLoad=Yes
   Frame=1287139   StationType=MinNumSta   MinNumSta=3   AddAtElmInt=Yes   AddAtPtLoad=Yes
   Frame=1287140   StationType=MinNumSta   MinNumSta=3   AddAtElmInt=Yes   AddAtPtLoad=Yes
   Frame=1287141   StationType=MinNumSta   MinNumSta=3   AddAtElmInt=Yes   AddAtPtLoad=Yes
   Frame=1287142   StationType=MinNumSta   MinNumSta=3   AddAtElmInt=Yes   AddAtPtLoad=Yes
   Frame=1287143   StationType=MinNumSta   MinNumSta=3   AddAtElmInt=Yes   AddAtPtLoad=Yes
   Frame=1287144   StationType=MinNumSta   MinNumSta=3   AddAtElmInt=Yes   AddAtPtLoad=Yes
   Frame=1287145   StationType=MinNumSta   MinNumSta=3   AddAtElmInt=Yes   AddAtPtLoad=Yes
   Frame=1287146   StationType=MinNumSta   MinNumSta=3   AddAtElmInt=Yes   AddAtPtLoad=Yes
   Frame=1287147   StationType=MinNumSta   MinNumSta=3   AddAtElmInt=Yes   AddAtPtLoad=Yes
   Frame=1287148   StationType=MinNumSta   MinNumSta=3   AddAtElmInt=Yes   AddAtPtLoad=Yes
   Frame=1287149   StationType=MinNumSta   MinNumSta=3   AddAtElmInt=Yes   AddAtPtLoad=Yes
   Frame=1287150   StationType=MinNumSta   MinNumSta=3   AddAtElmInt=Yes   AddAtPtLoad=Yes
   Frame=1287151   StationType=MinNumSta   MinNumSta=3   AddAtElmInt=Yes   AddAtPtLoad=Yes
# ... 43 like lines cut
   Frame=1287195   StationType=MaxStaSpcg   MaxStaSpcg=0.5   AddAtElmInt=Yes   AddAtPtLoad=Yes
   Frame=1287196   StationType=MaxStaSpcg   MaxStaSpcg=0.5   AddAtElmInt=Yes   AddAtPtLoad=Yes
   Frame=1287197   StationType=MaxStaSpcg   MaxStaSpcg=0.5   AddAtElmInt=Yes   AddAtPtLoad=Yes
   Frame=1287198   StationType=MaxStaSpcg   MaxStaSpcg=0.5   AddAtElmInt=Yes   AddAtPtLoad=Yes
   Frame=1287199   StationType=MaxStaSpcg   MaxStaSpcg=0.5   AddAtElmInt=Yes   AddAtPtLoad=Yes
   Frame=1287200   StationType=MaxStaSpcg   MaxStaSpcg=0.5   AddAtElmInt=Yes   AddAtPtLoad=Yes
 
TABLE:  "FRAME SECTION ASSIGNMENTS"
   Frame=1287065   AutoSelect=N.A.   AnalSect=TB   MatProp=Default
   Frame=1287066   AutoSelect=N.A.   AnalSect=TB   MatProp=Default
   Frame=1287067   AutoSelect=N.A.   AnalSect=TB   MatProp=Default
   Frame=1287068   AutoSelect=N.A.   AnalSect=TB   MatProp=Default
   Frame=1287069   AutoSelect=N.A.   AnalSect=TB   MatProp=Default
   Frame=1287070   AutoSelect=N.A.   AnalSect=TB   MatProp=Default
   Frame=1287071   AutoSelect=N.A.   AnalSect=TB   MatProp=Default
   Frame=1287072   AutoSelect=N.A.   AnalSect=TB   MatProp=Default
   Frame=1287073   AutoSelect=N.A.   AnalSect=TB   MatProp=Default
   Frame=1287074   AutoSelect=N.A.   AnalSect=TB   MatProp=Default
   Frame=1287075   AutoSelect=N.A.   AnalSect=TB   MatProp=Default
   Frame=1287076   AutoSelect=N.A.   AnalSect=TB   MatProp=Default
   Frame=1287077   AutoSelect=N.A.   AnalSect=TB   MatProp=Default
   Frame=1287078   AutoSelect=N.A.   AnalSect=TB   MatProp=Default
   Frame=1287079   AutoSelect=N.A.   AnalSect=TB   MatProp=Default
   Frame=1287080   AutoSelect=N.A.   AnalSect=TB   MatProp=Default
   Frame=1287081   AutoSelect=N.A.   AnalSect=TB   MatProp=Default
   Frame=1287082   AutoSelect=N.A.   AnalSect=TB   MatProp=Default
   Frame=1287083   AutoSelect=N.A.   AnalSect=TB   MatProp=Default
   Frame=1287084   AutoSelect=N.A.   AnalSect=TB   MatProp=Default
# ... 15 like lines cut
   Frame=1287100   AutoSelect=N.A.   AnalSect=LB   MatProp=Default
   Frame=1287101   AutoSelect=N.A.   AnalSect=LB   MatProp=Default
   Frame=1287102   AutoSelect=N.A.   AnalSect=LB   MatProp=Default
   Frame=1287103   AutoSelect=N.A.   AnalSect=LB   MatProp=Default
   Frame=1287104   AutoSelect=N.A.   AnalSect=LB   MatProp=Default
   Frame=1287105   AutoSelect=N.A.   AnalSect=LB   MatProp=Default
   Frame=1287106   AutoSelect=N.A.   AnalSect=LB   MatProp=Default
   Frame=1287107   AutoSelect=N.A.   AnalSect=LB   MatProp=Default
   Frame=1287108   AutoSelect=N.A.   AnalSect=LB   MatProp=Default
   Frame=1287109   AutoSelect=N.A.   AnalSect=LB   MatProp=Default
   Frame=1287110   AutoSelect=N.A.   AnalSect=LB   MatProp=Default
   Frame=1287111   AutoSelect=N.A.   AnalSect=LB   MatProp=Default
   Frame=1287112   AutoSelect=N.A.   AnalSect=LB   MatProp=Default
   Frame=1287113   AutoSelect=N.A.   AnalSect=LB   MatProp=Default
   Frame=1287114   AutoSelect=N.A.   AnalSect=LB   MatProp=Default
   Frame=1287115   AutoSelect=N.A.   AnalSect=LB   MatProp=Default
   Frame=1287116   AutoSelect=N.A.   AnalSect=LB   MatProp=Default
   Frame=1287117   AutoSelect=N.A.   AnalSect=LB   MatProp=Default
   Frame=1287118   AutoSelect=N.A.   AnalSect=LB   MatProp=Default
   Frame=1287119   AutoSelect=N.A.   AnalSect=LB   MatProp=Default
# ... 12 like lines cut
   Frame=1287132   AutoSelect=N.A.   AnalSect=EB   MatProp=Default
   Frame=1287133   AutoSelect=N.A.   AnalSect=Piles   MatProp=Default
   Frame=1287134   AutoSelect=N.A.   AnalSect=Piles   MatProp=Default
   Frame=1287135   AutoSelect=N.A.   AnalSect=EB   MatProp=Default
   Frame=1287136   AutoSelect=N.A.   AnalSect=Piles   MatProp=Default
   Frame=1287137   AutoSelect=N.A.   AnalSect=Piles   MatProp=Default
   Frame=1287138   AutoSelect=N.A.   AnalSect=EB   MatProp=Default
   Frame=1287139   AutoSelect=N.A.   AnalSect=Piles   MatProp=Default
   Frame=1287140   AutoSelect=N.A.   AnalSect=Piles   MatProp=Default
   Frame=1287141   AutoSelect=N.A.   AnalSect=EB   MatProp=Default
   Frame=1287142   AutoSelect=N.A.   AnalSect=Piles   MatProp=Default
   Frame=1287143   AutoSelect=N.A.   AnalSect=Piles   MatProp=Default
   Frame=1287144   AutoSelect=N.A.   AnalSect=EB   MatProp=Default
   Frame=1287145   AutoSelect=N.A.   AnalSect=Piles   MatProp=Default
   Frame=1287146   AutoSelect=N.A.   AnalSect=Piles   MatProp=Default
   Frame=1287147   AutoSelect=N.A.   AnalSect=EB   MatProp=Default
   Frame=1287148   AutoSelect=N.A.   AnalSect=Piles   MatProp=Default
   Frame=1287149   AutoSelect=N.A.   AnalSect=Piles   MatProp=Default
   Frame=1287150   AutoSelect=N.A.   AnalSect=EB   MatProp=Default
   Frame=1287151   AutoSelect=N.A.   AnalSect=Piles   MatProp=Default
   Frame=1287152   AutoSelect=N.A.   AnalSect=Piles   MatProp=Default
   Frame=1287153   AutoSelect=N.A.   AnalSect=Piles   MatProp=Default
   Frame=1287154   AutoSelect=N.A.   AnalSect=Piles   MatProp=Default
   Frame=1287155   AutoSelect=N.A.   AnalSect=Piles   MatProp=Default
   Frame=1287156   AutoSelect=N.A.   AnalSect=Piles   MatProp=Default
   Frame=1287157   AutoSelect=N.A.   AnalSect=Piles   MatProp=Default
   Frame=1287158   AutoSelect=N.A.   AnalSect=Piles   MatProp=Default
   Frame=1287159   AutoSelect=N.A.   AnalSect=Piles   MatProp=Default
   Frame=1287160   AutoSelect=N.A.   AnalSect=Piles   MatProp=Default
   Frame=1287161   AutoSelect=N.A.   AnalSect=Piles   MatProp=Default
   Frame=1287162   AutoSelect=N.A.   AnalSect=Piles   MatProp=Default
   Frame=1287163   AutoSelect=N.A.   AnalSect=Piles   MatProp=Default
   Frame=1287164   AutoSelect=N.A.   AnalSect=Piles   MatProp=Default
   Frame=1287165   AutoSelect=N.A.   AnalSect=Piles   MatProp=Default
   Frame=1287166   AutoSelect=N.A.   AnalSect=Piles   MatProp=Default
   Frame=1287167   AutoSelect=N.A.   AnalSect=Piles   MatProp=Default
   Frame=1287168   AutoSelect=N.A.   AnalSect=Piles   MatProp=Default
   Frame=1287169   AutoSelect=N.A.   AnalSect=Piles   MatProp=Default
   Frame=1287170   AutoSelect=N.A.   AnalSect=Piles   MatProp=Default
# ... 24 like lines cut
   Frame=1287195   AutoSelect=N.A.   AnalSect=EB-1   MatProp=Default
   Frame=1287196   AutoSelect=N.A.   AnalSect=EB-1   MatProp=Default
   Frame=1287197   AutoSelect=N.A.   AnalSect=EB-1   MatProp=Default
   Frame=1287198   AutoSelect=N.A.   AnalSect=EB-1   MatProp=Default
   Frame=1287199   AutoSelect=N.A.   AnalSect=EB-1   MatProp=Default
   Frame=1287200   AutoSelect=N.A.   AnalSect=EB-1   MatProp=Default
 
TABLE:  "FRAME SECTION PROPERTIES 01 - GENERAL"
   SectionName=EB   Material=BTCT   Shape=Rectangular   t3=1.2   t2=0.5   Area=0.6   TorsConst=0.0369079665195795   I33=0.072   I22=0.0125   I23=0   AS2=0.5   AS3=0.5   S33Top=0.12   S33Bot=0.12   S22Left=0.05   S22Right=0.05   Z33=0.18 _
        Z22=0.075   R33=0.346410161513775   R22=0.144337567297406   CGOffset3=0   CGOffset2=0   EccV2=0   EccV3=0   Cw=0   Color=Red   FromFile=No   AMod=1   A2Mod=1   A3Mod=1   JMod=1   I2Mod=1   I3Mod=1   MMod=1   WMod=1
   SectionName=EB-1   Material=BTCT   Shape=Rectangular   t3=0.5   t2=0.5   Area=0.25   TorsConst=0.00880208333333333   I33=0.00520833333333333   I22=0.00520833333333333   I23=0   AS2=0.208333333333333   AS3=0.208333333333333 _
        S33Top=0.0208333333333333   S33Bot=0.0208333333333333   S22Left=0.0208333333333333   S22Right=0.0208333333333333   Z33=0.03125   Z22=0.03125   R33=0.144337567297406   R22=0.144337567297406   CGOffset3=0   CGOffset2=0   EccV2=0 _
        EccV3=0   Cw=0   Color=Magenta   FromFile=No   AMod=1   A2Mod=1   A3Mod=1   JMod=1   I2Mod=1   I3Mod=1   MMod=1   WMod=1
   SectionName=LB   Material=BTCT   Shape=Rectangular   t3=0.9   t2=0.5   Area=0.45   TorsConst=0.0244791904816339   I33=0.030375   I22=0.009375   I23=0   AS2=0.375   AS3=0.375   S33Top=0.0675   S33Bot=0.0675   S22Left=0.0375 _
        S22Right=0.0375   Z33=0.10125   Z22=0.05625   R33=0.259807621135332   R22=0.144337567297406   CGOffset3=0   CGOffset2=0   EccV2=0   EccV3=0   Cw=0   Color=Cyan   FromFile=No   AMod=1   A2Mod=1   A3Mod=1   JMod=1   I2Mod=1   I3Mod=1 _
        MMod=1   WMod=1
   SectionName=Piles   Material=BTCTCOC   Shape=Pipe   t3=0.3   tw=0.06   Area=0.045238934211693   TorsConst=0.000692155693438903   I33=0.000346077846719452   I22=0.000346077846719452   I23=0   AS2=0.0235427106611872 _
        AS3=0.0235427106611872   S33Top=0.00230718564479634   S33Bot=0.00230718564479634   S22Left=0.00230718564479634   S22Right=0.00230718564479634   Z33=0.003528   Z22=0.003528   R33=0.0874642784226795   R22=0.0874642784226795 _
        CGOffset3=0   CGOffset2=0   EccV2=0   EccV3=0   Cw=0   Color=Yellow   FromFile=No   AMod=1   A2Mod=1   A3Mod=1   JMod=1   I2Mod=1   I3Mod=1   MMod=1   WMod=1
   SectionName=TB   Material=BTCT   Shape=Rectangular   t3=0.9   t2=0.5   Area=0.45   TorsConst=0.0244791904816339   I33=0.030375   I22=0.009375   I23=0   AS2=0.375   AS3=0.375   S33Top=0.0675   S33Bot=0.0675   S22Left=0.0375 _
        S22Right=0.0375   Z33=0.10125   Z22=0.05625   R33=0.259807621135332   R22=0.144337567297406   CGOffset3=0   CGOffset2=0   EccV2=0   EccV3=0   Cw=0   Color=Green   FromFile=No   AMod=1   A2Mod=1   A3Mod=1   JMod=1   I2Mod=1   I3Mod=1 _
        MMod=1   WMod=1
 
TABLE:  "FRAME SECTION PROPERTIES 02 - CONCRETE COLUMN"
   SectionName=EB   RebarMatL=A706   RebarMatC=A706   ReinfConfig=Rectangular   LatReinf=Ties   Cover=0.05   NumBars3Dir=2   NumBars2Dir=2   BarSizeL=12d   BarSizeC=10d   SpacingC=0.1   NumCBars2=2   NumCBars3=2   ReinfType=Design
   SectionName=EB-1   RebarMatL=A706   RebarMatC=A706   ReinfConfig=Rectangular   LatReinf=Ties   Cover=0.05   NumBars3Dir=2   NumBars2Dir=2   BarSizeL=12d   BarSizeC=10d   SpacingC=0.1   NumCBars2=2   NumCBars3=2   ReinfType=Design
   SectionName=LB   RebarMatL=A706   RebarMatC=A706   ReinfConfig=Rectangular   LatReinf=Ties   Cover=0.05   NumBars3Dir=2   NumBars2Dir=2   BarSizeL=12d   BarSizeC=10d   SpacingC=0.1   NumCBars2=2   NumCBars3=2   ReinfType=Design
   SectionName=TB   RebarMatL=A706   RebarMatC=A706   ReinfConfig=Rectangular   LatReinf=Ties   Cover=0.05   NumBars3Dir=2   NumBars2Dir=2   BarSizeL=12d   BarSizeC=10d   SpacingC=0.1   NumCBars2=2   NumCBars3=2   ReinfType=Design
 
TABLE:  "FRAME SECTION PROPERTIES 13 - TIME DEPENDENT"
   SectionName=EB   TypeSize=Auto   AutoSFSize=1
   SectionName=EB-1   TypeSize=Auto   AutoSFSize=1
   SectionName=LB   TypeSize=Auto   AutoSFSize=1
   SectionName=Piles   TypeSize=Auto   AutoSFSize=1
   SectionName=TB   TypeSize=Auto   AutoSFSize=1
 
TABLE:  "FUNCTION - PLOT FUNCTIONS"
   PlotFunc="Input Energy"   Type=Energy   Component=Input   Mode=All
 
TABLE:  "FUNCTION - POWER SPECTRAL DENSITY - USER"
   Name=UNIFPSD   Frequency=0   Value=1
   Name=UNIFPSD   Frequency=1   Value=1
 
TABLE:  "FUNCTION - RESPONSE SPECTRUM - USER"
   Name=UNIFRS   Period=0   Accel=1   FuncDamp=0.05
   Name=UNIFRS   Period=1   Accel=1
 
TABLE:  "FUNCTION - STEADY STATE - USER"
   Name=UNIFSS   Frequency=0   Value=1
   Name=UNIFSS   Frequency=1   Value=1
 
TABLE:  "FUNCTION - TIME HISTORY - USER"
   Name=RAMPTH   Time=0   Value=0
   Name=RAMPTH   Time=1   Value=1
   Name=RAMPTH   Time=4   Value=1
   Name=UNIFTH   Time=0   Value=1
   Name=UNIFTH   Time=1   Value=1
 
TABLE:  "GRID LINES"
   CoordSys=GLOBAL   AxisDir=X   GridID=A   XRYZCoord=-10   LineType=Primary   LineColor=Gray8Dark   Visible=Yes   BubbleLoc=End   AllVisible=Yes   BubbleSize=0.9375
   CoordSys=GLOBAL   AxisDir=X   GridID=B   XRYZCoord=-9   LineType=Primary   LineColor=Gray8Dark   Visible=Yes   BubbleLoc=End
   CoordSys=GLOBAL   AxisDir=X   GridID=C   XRYZCoord=-4.5   LineType=Primary   LineColor=Gray8Dark   Visible=Yes   BubbleLoc=End
   CoordSys=GLOBAL   AxisDir=X   GridID=D   XRYZCoord=0   LineType=Primary   LineColor=Gray8Dark   Visible=Yes   BubbleLoc=End
   CoordSys=GLOBAL   AxisDir=X   GridID=E   XRYZCoord=4.5   LineType=Primary   LineColor=Gray8Dark   Visible=Yes   BubbleLoc=End
   CoordSys=GLOBAL   AxisDir=X   GridID=F   XRYZCoord=9   LineType=Primary   LineColor=Gray8Dark   Visible=Yes   BubbleLoc=End
   CoordSys=GLOBAL   AxisDir=X   GridID=G   XRYZCoord=10   LineType=Primary   LineColor=Gray8Dark   Visible=Yes   BubbleLoc=End
   CoordSys=GLOBAL   AxisDir=Y   GridID=1   XRYZCoord=-5.2   LineType=Primary   LineColor=Gray8Dark   Visible=Yes   BubbleLoc=Start
   CoordSys=GLOBAL   AxisDir=Y   GridID=2   XRYZCoord=-4.2   LineType=Primary   LineColor=Gray8Dark   Visible=Yes   BubbleLoc=Start
   CoordSys=GLOBAL   AxisDir=Y   GridID=3   XRYZCoord=0   LineType=Primary   LineColor=Gray8Dark   Visible=Yes   BubbleLoc=Start
   CoordSys=GLOBAL   AxisDir=Y   GridID=4   XRYZCoord=4.2   LineType=Primary   LineColor=Gray8Dark   Visible=Yes   BubbleLoc=Start
   CoordSys=GLOBAL   AxisDir=Y   GridID=5   XRYZCoord=4.8   LineType=Primary   LineColor=Gray8Dark   Visible=Yes   BubbleLoc=Start
   CoordSys=GLOBAL   AxisDir=Z   GridID=Z1   XRYZCoord=0   LineType=Primary   LineColor=Gray8Dark   Visible=Yes   BubbleLoc=End
   CoordSys=GLOBAL   AxisDir=Z   GridID=Z2   XRYZCoord=13   LineType=Primary   LineColor=Gray8Dark   Visible=Yes   BubbleLoc=End
 
TABLE:  "GROUPS 1 - DEFINITIONS"
   GroupName=ALL   Selection=Yes   SectionCut=Yes   Steel=Yes   Concrete=Yes   Aluminum=Yes   ColdFormed=Yes   Stage=Yes   Bridge=Yes   AutoSeismic=No   AutoWind=No   SelDesSteel=No   SelDesAlum=No   SelDesCold=No   MassWeight=Yes   Color=Red
   GroupName=Pile   Selection=Yes   SectionCut=Yes   Steel=Yes   Concrete=Yes   Aluminum=Yes   ColdFormed=Yes   Stage=Yes   Bridge=Yes   AutoSeismic=No   AutoWind=No   SelDesSteel=No   SelDesAlum=No   SelDesCold=No   MassWeight=Yes   Color=Gray8Dark
   GroupName=DN   Selection=Yes   SectionCut=Yes   Steel=Yes   Concrete=Yes   Aluminum=Yes   ColdFormed=Yes   Stage=Yes   Bridge=Yes   AutoSeismic=No   AutoWind=No   SelDesSteel=No   SelDesAlum=No   SelDesCold=No   MassWeight=Yes   Color=Yellow
   GroupName=Pile_Toe   Selection=Yes   SectionCut=Yes   Steel=Yes   Concrete=Yes   Aluminum=Yes   ColdFormed=Yes   Stage=Yes   Bridge=Yes   AutoSeismic=No   AutoWind=No   SelDesSteel=No   SelDesAlum=No   SelDesCold=No   MassWeight=Yes   Color=Green
   GroupName=Pile_Bend   Selection=Yes   SectionCut=Yes   Steel=Yes   Concrete=Yes   Aluminum=Yes   ColdFormed=Yes   Stage=Yes   Bridge=Yes   AutoSeismic=No   AutoWind=No   SelDesSteel=No   SelDesAlum=No   SelDesCold=No   MassWeight=Yes   Color=Cyan
   GroupName=Beam   Selection=Yes   SectionCut=Yes   Steel=Yes   Concrete=Yes   Aluminum=Yes   ColdFormed=Yes   Stage=Yes   Bridge=Yes   AutoSeismic=No   AutoWind=No   SelDesSteel=No   SelDesAlum=No   SelDesCold=No   MassWeight=Yes   Color=Blue
   GroupName=Piles   Selection=Yes   SectionCut=Yes   Steel=Yes   Concrete=Yes   Aluminum=Yes   ColdFormed=Yes   Stage=Yes   Bridge=Yes   AutoSeismic=No   AutoWind=No   SelDesSteel=No   SelDesAlum=No   SelDesCold=No   MassWeight=Yes   Color=Gray8Dark
   GroupName=Beams   Selection=Yes   SectionCut=Yes   Steel=Yes   Concrete=Yes   Aluminum=Yes   ColdFormed=Yes   Stage=Yes   Bridge=Yes   AutoSeismic=No   AutoWind=No   SelDesSteel=No   SelDesAlum=No   SelDesCold=No   MassWeight=Yes   Color=Blue
 
TABLE:  "GROUPS 2 - ASSIGNMENTS"
 
TABLE:  "JOINT COORDINATES"
   Joint=1108628   CoordSys=GLOBAL   CoordType=Cartesian   XorR=-9   Y=-5   Z=0   SpecialJt=No   GUID=0eff9cbb-098e-45bb-99f3-f3ce50b642a6
   Joint=1108629   CoordSys=GLOBAL   CoordType=Cartesian   XorR=-9   Y=-4.5   Z=0   SpecialJt=No   GUID=9efde88e-7fda-4b25-b4db-cf9614dd98ca
   Joint=1108630   CoordSys=GLOBAL   CoordType=Cartesian   XorR=-6   Y=-5   Z=0   SpecialJt=No   GUID=e6b48f90-62e5-4a7f-963b-c161ed495f3b
   Joint=1108631   CoordSys=GLOBAL   CoordType=Cartesian   XorR=-6   Y=-4.5   Z=0   SpecialJt=No   GUID=3dc25ee1-fa7e-44bc-8dbf-68a904023228
   Joint=1108632   CoordSys=GLOBAL   CoordType=Cartesian   XorR=-3   Y=-5   Z=0   SpecialJt=No   GUID=95ea1cbe-b4b3-4d38-af7e-3b47dc3f6326
   Joint=1108633   CoordSys=GLOBAL   CoordType=Cartesian   XorR=-3   Y=-4.5   Z=0   SpecialJt=No   GUID=5a22481c-ba88-4d7c-bba8-45a00787dbbd
   Joint=1108634   CoordSys=GLOBAL   CoordType=Cartesian   XorR=0   Y=-5   Z=0   SpecialJt=No   GUID=63434061-ea2b-4db8-9a0f-fb3ef552100a
   Joint=1108635   CoordSys=GLOBAL   CoordType=Cartesian   XorR=0   Y=-4.5   Z=0   SpecialJt=No   GUID=169f6a60-b8ec-470b-af06-8c84bd3135c9
   Joint=1108636   CoordSys=GLOBAL   CoordType=Cartesian   XorR=3   Y=-5   Z=0   SpecialJt=No   GUID=b0072e9f-8135-413d-81ff-359d3e02b5da
   Joint=1108637   CoordSys=GLOBAL   CoordType=Cartesian   XorR=3   Y=-4.5   Z=0   SpecialJt=No   GUID=1474ebfa-987e-474d-b108-17cf2d230893
   Joint=1108638   CoordSys=GLOBAL   CoordType=Cartesian   XorR=6   Y=-5   Z=0   SpecialJt=No   GUID=2275ed53-83f8-4b47-8e40-8a6885c0279d
   Joint=1108639   CoordSys=GLOBAL   CoordType=Cartesian   XorR=6   Y=-4.5   Z=0   SpecialJt=No   GUID=ade595f9-e2e0-4dfc-a08d-fa375279cbbc
   Joint=1108640   CoordSys=GLOBAL   CoordType=Cartesian   XorR=9   Y=-5   Z=0   SpecialJt=No   GUID=c94f2a6a-d92b-440f-bda6-ae2fca4c2deb
   Joint=1108641   CoordSys=GLOBAL   CoordType=Cartesian   XorR=9   Y=-4.5   Z=0   SpecialJt=No   GUID=894a9043-c655-441b-9f2d-1433a2e0c16a
   Joint=1108642   CoordSys=GLOBAL   CoordType=Cartesian   XorR=-9   Y=-1.5   Z=0   SpecialJt=No   GUID=d2dd7f18-372b-4e0a-8522-40653c99e32f
   Joint=1108643   CoordSys=GLOBAL   CoordType=Cartesian   XorR=-6   Y=-1.5   Z=0   SpecialJt=No   GUID=3669435a-0b79-43bd-a793-8d6d7f752c7e
   Joint=1108644   CoordSys=GLOBAL   CoordType=Cartesian   XorR=-3   Y=-1.5   Z=0   SpecialJt=No   GUID=15b3331f-e988-48fc-b492-775afb108d2c
   Joint=1108645   CoordSys=GLOBAL   CoordType=Cartesian   XorR=0   Y=-1.5   Z=0   SpecialJt=No   GUID=decc7a39-36b0-45bb-bc55-85c2f77af17c
   Joint=1108646   CoordSys=GLOBAL   CoordType=Cartesian   XorR=3   Y=-1.5   Z=0   SpecialJt=No   GUID=13e45d37-e800-49c9-81ee-7ca1bf54b343
   Joint=1108647   CoordSys=GLOBAL   CoordType=Cartesian   XorR=6   Y=-1.5   Z=0   SpecialJt=No   GUID=42156a8f-14a0-48b7-9f7d-924c3933e364
   Joint=1108648   CoordSys=GLOBAL   CoordType=Cartesian   XorR=9   Y=-1.5   Z=0   SpecialJt=No   GUID=4f6fe785-97e0-49d9-a49f-34df3ffd0b47
   Joint=1108649   CoordSys=GLOBAL   CoordType=Cartesian   XorR=-9   Y=1.5   Z=0   SpecialJt=No   GUID=bf3b95a4-438a-433b-9aa7-569d1691cca6
   Joint=1108650   CoordSys=GLOBAL   CoordType=Cartesian   XorR=-6   Y=1.5   Z=0   SpecialJt=No   GUID=51568abd-e5c7-4e6f-8abb-7cdb47cb81f4
   Joint=1108651   CoordSys=GLOBAL   CoordType=Cartesian   XorR=-3   Y=1.5   Z=0   SpecialJt=No   GUID=e57b2817-2c07-4274-9617-8976448fbeff
   Joint=1108652   CoordSys=GLOBAL   CoordType=Cartesian   XorR=0   Y=1.5   Z=0   SpecialJt=No   GUID=676a8151-9e61-4804-b5df-855b1cf435db
   Joint=1108653   CoordSys=GLOBAL   CoordType=Cartesian   XorR=3   Y=1.5   Z=0   SpecialJt=No   GUID=d64f13d9-1211-45e9-b4bb-5df6c0278468
   Joint=1108654   CoordSys=GLOBAL   CoordType=Cartesian   XorR=6   Y=1.5   Z=0   SpecialJt=No   GUID=298c7c71-b497-45a0-91e6-8fcdd83885fe
   Joint=1108655   CoordSys=GLOBAL   CoordType=Cartesian   XorR=9   Y=1.5   Z=0   SpecialJt=No   GUID=a8758da2-2989-43d3-a403-64333127c880
   Joint=1108656   CoordSys=GLOBAL   CoordType=Cartesian   XorR=-9   Y=4.5   Z=0   SpecialJt=No   GUID=bc339122-7590-4df5-836e-b1e14706ef91
   Joint=1108657   CoordSys=GLOBAL   CoordType=Cartesian   XorR=-6   Y=4.5   Z=0   SpecialJt=No   GUID=3a868ac4-3b02-40ee-bba3-b1eff0845123
   Joint=1108658   CoordSys=GLOBAL   CoordType=Cartesian   XorR=-3   Y=4.5   Z=0   SpecialJt=No   GUID=721c8c5d-6948-4be5-819d-9a42848f0f6c
   Joint=1108659   CoordSys=GLOBAL   CoordType=Cartesian   XorR=0   Y=4.5   Z=0   SpecialJt=No   GUID=b9ecf691-4025-41ed-826c-d98e4c38ad93
   Joint=1108660   CoordSys=GLOBAL   CoordType=Cartesian   XorR=3   Y=4.5   Z=0   SpecialJt=No   GUID=a60b9717-6d1e-443e-8c54-07b66d668d37
   Joint=1108661   CoordSys=GLOBAL   CoordType=Cartesian   XorR=6   Y=4.5   Z=0   SpecialJt=No   GUID=fedfa13d-8696-41d6-98db-230f34a0afc4
   Joint=1108662   CoordSys=GLOBAL   CoordType=Cartesian   XorR=9   Y=4.5   Z=0   SpecialJt=No   GUID=f7a63cb8-1b14-4c65-9677-c74bf0f6a682
   Joint=1108663   CoordSys=GLOBAL   CoordType=Cartesian   XorR=-9   Y=5   Z=0   SpecialJt=No   GUID=a99578f3-39c1-42a7-8bf0-53a9ea2d7834
   Joint=1108664   CoordSys=GLOBAL   CoordType=Cartesian   XorR=-6   Y=5   Z=0   SpecialJt=No   GUID=961e8572-086e-40a3-bd2d-28c49e501eb4
   Joint=1108665   CoordSys=GLOBAL   CoordType=Cartesian   XorR=-3   Y=5   Z=0   SpecialJt=No   GUID=b1b2c5d0-813f-49c6-8914-c9599e7f6c23
   Joint=1108666   CoordSys=GLOBAL   CoordType=Cartesian   XorR=0   Y=5   Z=0   SpecialJt=No   GUID=ecbe4775-9c72-4713-b817-1dd6f165fd9f
   Joint=1108667   CoordSys=GLOBAL   CoordType=Cartesian   XorR=3   Y=5   Z=0   SpecialJt=No   GUID=5ec1d201-3a52-44e6-9a3e-80d1ff84f549
   Joint=1108668   CoordSys=GLOBAL   CoordType=Cartesian   XorR=6   Y=5   Z=0   SpecialJt=No   GUID=65261dfd-aab3-4511-9412-e8125639b622
   Joint=1108669   CoordSys=GLOBAL   CoordType=Cartesian   XorR=9   Y=5   Z=0   SpecialJt=No   GUID=f22cc428-9589-43ed-8f59-d0aa4162d79f
   Joint=1108670   CoordSys=GLOBAL   CoordType=Cartesian   XorR=-10   Y=-4.5   Z=0   SpecialJt=No   GUID=c0c0a2c0-b0d0-497e-bd83-680f299e4f2d
   Joint=1108671   CoordSys=GLOBAL   CoordType=Cartesian   XorR=-10   Y=-1.5   Z=0   SpecialJt=No   GUID=bcc7c200-8502-47ba-b6ec-bef6a7bd68dd
   Joint=1108672   CoordSys=GLOBAL   CoordType=Cartesian   XorR=-10   Y=1.5   Z=0   SpecialJt=No   GUID=6f83440d-a282-4c3a-8ff0-7131b7330d81
   Joint=1108673   CoordSys=GLOBAL   CoordType=Cartesian   XorR=-10   Y=4.5   Z=0   SpecialJt=No   GUID=57b9053a-21f1-4dd4-bc93-37318f998c75
   Joint=1108674   CoordSys=GLOBAL   CoordType=Cartesian   XorR=10   Y=-4.5   Z=0   SpecialJt=No   GUID=0417726f-30c5-4867-a838-8c2f11903114
   Joint=1108675   CoordSys=GLOBAL   CoordType=Cartesian   XorR=10   Y=-1.5   Z=0   SpecialJt=No   GUID=c22d6d0b-dc15-4d41-af21-11994b3dd989
   Joint=1108676   CoordSys=GLOBAL   CoordType=Cartesian   XorR=10   Y=1.5   Z=0   SpecialJt=No   GUID=90128644-1e57-4b08-a0a7-46f37e2d95d5
   Joint=1108677   CoordSys=GLOBAL   CoordType=Cartesian   XorR=10   Y=4.5   Z=0   SpecialJt=No   GUID=3e85470a-a5d6-4fb1-ba93-e416600e05cb
   Joint=1108678   CoordSys=GLOBAL   CoordType=Cartesian   XorR=-9   Y=-4.5   Z=-3   SpecialJt=No   GUID=f15e1a6c-e7f3-4b06-a9f9-fa02759d4335
   Joint=1108679   CoordSys=GLOBAL   CoordType=Cartesian   XorR=-9   Y=-4.5   Z=-13.4180229476075   SpecialJt=No   GUID=57462f8f-c425-455f-b0f2-b373a1a1fc92
   Joint=1108680   CoordSys=GLOBAL   CoordType=Cartesian   XorR=-9   Y=-4.5   Z=-16   SpecialJt=No   GUID=ca4ab0fb-5cff-4418-a139-f5bd96aa3ca7
   Joint=1108681   CoordSys=GLOBAL   CoordType=Cartesian   XorR=-6   Y=-4.5   Z=-3   SpecialJt=No   GUID=849f7da9-f687-4201-9267-49b0b8026207
   Joint=1108682   CoordSys=GLOBAL   CoordType=Cartesian   XorR=-6   Y=-4.5   Z=-13.4180229476075   SpecialJt=No   GUID=5ef33203-9fbf-4918-8115-0e072f1c65be
   Joint=1108683   CoordSys=GLOBAL   CoordType=Cartesian   XorR=-6   Y=-4.5   Z=-16   SpecialJt=No   GUID=c9f2a457-8abb-4fb9-9471-96d291cc741e
   Joint=1108684   CoordSys=GLOBAL   CoordType=Cartesian   XorR=-3   Y=-4.5   Z=-3   SpecialJt=No   GUID=644e8da1-c9db-487a-bee3-b01c1f58b6ad
   Joint=1108685   CoordSys=GLOBAL   CoordType=Cartesian   XorR=-3   Y=-4.5   Z=-13.4180229476075   SpecialJt=No   GUID=c9046adc-5811-4697-b801-663df38feeee
   Joint=1108686   CoordSys=GLOBAL   CoordType=Cartesian   XorR=-3   Y=-4.5   Z=-16   SpecialJt=No   GUID=5482552d-c957-47bc-aa47-09d2765d2dc5
   Joint=1108687   CoordSys=GLOBAL   CoordType=Cartesian   XorR=0   Y=-4.5   Z=-3   SpecialJt=No   GUID=d6ad1cb2-bd0a-42c1-bcfc-c0c2cf776a2f
   Joint=1108688   CoordSys=GLOBAL   CoordType=Cartesian   XorR=0   Y=-4.5   Z=-13.4180229476075   SpecialJt=No   GUID=9dc3d6b8-4ff3-4739-b76f-47768bda22f1
   Joint=1108689   CoordSys=GLOBAL   CoordType=Cartesian   XorR=0   Y=-4.5   Z=-16   SpecialJt=No   GUID=3ab6dbd8-0f28-4dd2-88c8-3f5b04d4acca
   Joint=1108690   CoordSys=GLOBAL   CoordType=Cartesian   XorR=3   Y=-4.5   Z=-3   SpecialJt=No   GUID=3e84c4c3-7ac9-4643-af7d-510744608dc4
   Joint=1108691   CoordSys=GLOBAL   CoordType=Cartesian   XorR=3   Y=-4.5   Z=-13.4180229476075   SpecialJt=No   GUID=edd709cd-6d0e-4722-bf87-241ba17a3d2f
   Joint=1108692   CoordSys=GLOBAL   CoordType=Cartesian   XorR=3   Y=-4.5   Z=-16   SpecialJt=No   GUID=aa59cf06-6950-41f5-8d1d-dbf48686374e
   Joint=1108693   CoordSys=GLOBAL   CoordType=Cartesian   XorR=6   Y=-4.5   Z=-3   SpecialJt=No   GUID=045827a8-b64f-4edf-ae0a-e9469fa4219d
   Joint=1108694   CoordSys=GLOBAL   CoordType=Cartesian   XorR=6   Y=-4.5   Z=-13.4180229476075   SpecialJt=No   GUID=bb5cbc9c-a032-491c-8041-4c6044bb8690
   Joint=1108695   CoordSys=GLOBAL   CoordType=Cartesian   XorR=6   Y=-4.5   Z=-16   SpecialJt=No   GUID=754cf731-7c94-46c6-976d-9a7a890d0fd8
   Joint=1108696   CoordSys=GLOBAL   CoordType=Cartesian   XorR=9   Y=-4.5   Z=-3   SpecialJt=No   GUID=f0747187-cc18-442b-91d1-606e4247abd0
   Joint=1108697   CoordSys=GLOBAL   CoordType=Cartesian   XorR=9   Y=-4.5   Z=-13.4180229476075   SpecialJt=No   GUID=8bbbe1c3-264d-434c-aac5-03763bd2ad85
   Joint=1108698   CoordSys=GLOBAL   CoordType=Cartesian   XorR=9   Y=-4.5   Z=-16   SpecialJt=No   GUID=fc4ed34d-d2f5-4af0-9c78-c6be02b69906
   Joint=1108699   CoordSys=GLOBAL   CoordType=Cartesian   XorR=-9   Y=-1.5   Z=-13.4180229476075   SpecialJt=No   GUID=9944b20e-a13f-4a71-b154-54140a63bcf7
   Joint=1108700   CoordSys=GLOBAL   CoordType=Cartesian   XorR=-9   Y=-1.5   Z=-16   SpecialJt=No   GUID=7ef75a1a-7f04-427a-9cd3-56b20c077d74
   Joint=1108701   CoordSys=GLOBAL   CoordType=Cartesian   XorR=-6   Y=-1.5   Z=-13.4180229476075   SpecialJt=No   GUID=0c8a12e9-e691-4517-a279-208a2ff50635
   Joint=1108702   CoordSys=GLOBAL   CoordType=Cartesian   XorR=-6   Y=-1.5   Z=-16   SpecialJt=No   GUID=b5c775ef-9785-4ea7-a0b8-b2b9c55018c3
   Joint=1108703   CoordSys=GLOBAL   CoordType=Cartesian   XorR=-3   Y=-1.5   Z=-13.4180229476075   SpecialJt=No   GUID=35242daa-d2a9-4020-b3ef-469e24338d72
   Joint=1108704   CoordSys=GLOBAL   CoordType=Cartesian   XorR=-3   Y=-1.5   Z=-16   SpecialJt=No   GUID=728863b6-4d4c-4a1c-aed5-5a93496d41dc
   Joint=1108705   CoordSys=GLOBAL   CoordType=Cartesian   XorR=0   Y=-1.5   Z=-13.4180229476075   SpecialJt=No   GUID=1ab33711-2984-4aa4-886a-7c352aa89c62
   Joint=1108706   CoordSys=GLOBAL   CoordType=Cartesian   XorR=0   Y=-1.5   Z=-16   SpecialJt=No   GUID=0604a121-517a-40ff-8957-c0cddd9100c7
   Joint=1108707   CoordSys=GLOBAL   CoordType=Cartesian   XorR=3   Y=-1.5   Z=-13.4180229476075   SpecialJt=No   GUID=25a0aa33-876c-4dc7-b13d-09deed7d1b5a
   Joint=1108708   CoordSys=GLOBAL   CoordType=Cartesian   XorR=3   Y=-1.5   Z=-16   SpecialJt=No   GUID=8e2583e0-711c-47bb-b9a3-2f335508b6d4
   Joint=1108709   CoordSys=GLOBAL   CoordType=Cartesian   XorR=6   Y=-1.5   Z=-13.4180229476075   SpecialJt=No   GUID=cf5b75ad-da34-4350-b0d6-10c7793d283b
   Joint=1108710   CoordSys=GLOBAL   CoordType=Cartesian   XorR=6   Y=-1.5   Z=-16   SpecialJt=No   GUID=1c914ad8-2bb6-4c78-a1de-3ef9973296ab
   Joint=1108711   CoordSys=GLOBAL   CoordType=Cartesian   XorR=9   Y=-1.5   Z=-13.4180229476075   SpecialJt=No   GUID=f5c23c2c-bc18-4aa0-9379-15928e1fa276
   Joint=1108712   CoordSys=GLOBAL   CoordType=Cartesian   XorR=9   Y=-1.5   Z=-16   SpecialJt=No   GUID=61f01e14-e192-4d8e-bc82-f75b7005cb2a
   Joint=1108713   CoordSys=GLOBAL   CoordType=Cartesian   XorR=-9   Y=1.5   Z=-13.4180229476075   SpecialJt=No   GUID=0f64b4c6-f618-4157-85bd-a45e1ffc237c
   Joint=1108714   CoordSys=GLOBAL   CoordType=Cartesian   XorR=-9   Y=1.5   Z=-16   SpecialJt=No   GUID=982e814a-681a-4638-8140-f3840e3a0e05
   Joint=1108715   CoordSys=GLOBAL   CoordType=Cartesian   XorR=-6   Y=1.5   Z=-13.4180229476075   SpecialJt=No   GUID=5ce87ba1-a1ea-4fdb-bc80-777b5ae488a4
   Joint=1108716   CoordSys=GLOBAL   CoordType=Cartesian   XorR=-6   Y=1.5   Z=-16   SpecialJt=No   GUID=d853d77f-26b6-4179-8644-d3c9fc97acaa
   Joint=1108717   CoordSys=GLOBAL   CoordType=Cartesian   XorR=-3   Y=1.5   Z=-13.4180229476075   SpecialJt=No   GUID=21682f4d-e8c7-4007-874e-9be3342d303a
   Joint=1108718   CoordSys=GLOBAL   CoordType=Cartesian   XorR=-3   Y=1.5   Z=-16   SpecialJt=No   GUID=8abe4345-950d-4404-9901-3583ed3e8589
   Joint=1108719   CoordSys=GLOBAL   CoordType=Cartesian   XorR=0   Y=1.5   Z=-13.4180229476075   SpecialJt=No   GUID=99a068ed-9368-4efd-b5cb-94c1a9515317
   Joint=1108720   CoordSys=GLOBAL   CoordType=Cartesian   XorR=0   Y=1.5   Z=-16   SpecialJt=No   GUID=bc9a1b7a-fe7f-45d7-9d11-8165f74d1904
   Joint=1108721   CoordSys=GLOBAL   CoordType=Cartesian   XorR=3   Y=1.5   Z=-13.4180229476075   SpecialJt=No   GUID=f70114f9-24a7-400a-8235-22645b654689
   Joint=1108722   CoordSys=GLOBAL   CoordType=Cartesian   XorR=3   Y=1.5   Z=-16   SpecialJt=No   GUID=5288e868-f20f-4d90-8761-2c0be799cc78
   Joint=1108723   CoordSys=GLOBAL   CoordType=Cartesian   XorR=6   Y=1.5   Z=-13.4180229476075   SpecialJt=No   GUID=ad412bfe-26ef-443d-b1e3-2b82fb5033ce
   Joint=1108724   CoordSys=GLOBAL   CoordType=Cartesian   XorR=6   Y=1.5   Z=-16   SpecialJt=No   GUID=1ce46888-7849-4068-b17b-18afa2df05c0
   Joint=1108725   CoordSys=GLOBAL   CoordType=Cartesian   XorR=9   Y=1.5   Z=-13.4180229476075   SpecialJt=No   GUID=a0686110-0564-42ed-8241-106f9c286572
   Joint=1108726   CoordSys=GLOBAL   CoordType=Cartesian   XorR=9   Y=1.5   Z=-16   SpecialJt=No   GUID=4b47587b-9716-4454-ade4-bef506197b71
   Joint=1108727   CoordSys=GLOBAL   CoordType=Cartesian   XorR=-9   Y=4.5   Z=-13.4180229476075   SpecialJt=No   GUID=15171a4d-3e6c-4e22-9fce-68d73d52f508
   Joint=1108728   CoordSys=GLOBAL   CoordType=Cartesian   XorR=-9   Y=4.5   Z=-16   SpecialJt=No   GUID=f2419e7a-7d1b-42fc-b1a0-c97da676418a
   Joint=1108729   CoordSys=GLOBAL   CoordType=Cartesian   XorR=-6   Y=4.5   Z=-13.4180229476075   SpecialJt=No   GUID=56e54651-291c-44fe-8e8d-0d9aeb4b384b
   Joint=1108730   CoordSys=GLOBAL   CoordType=Cartesian   XorR=-6   Y=4.5   Z=-16   SpecialJt=No   GUID=d5e4c3df-33f6-468c-a146-f2c198a2d05f
   Joint=1108731   CoordSys=GLOBAL   CoordType=Cartesian   XorR=-3   Y=4.5   Z=-13.4180229476075   SpecialJt=No   GUID=ed6530af-5e4d-47b5-bda1-b8188dd79bdf
   Joint=1108732   CoordSys=GLOBAL   CoordType=Cartesian   XorR=-3   Y=4.5   Z=-16   SpecialJt=No   GUID=bf8887a1-f795-4bb7-873c-e5919ffd36e9
   Joint=1108733   CoordSys=GLOBAL   CoordType=Cartesian   XorR=0   Y=4.5   Z=-13.4180229476075   SpecialJt=No   GUID=6c6ab228-e7ea-4c2d-aa28-46421602abce
   Joint=1108734   CoordSys=GLOBAL   CoordType=Cartesian   XorR=0   Y=4.5   Z=-16   SpecialJt=No   GUID=c654366d-5a13-4489-87c2-13f51b4992ad
   Joint=1108735   CoordSys=GLOBAL   CoordType=Cartesian   XorR=3   Y=4.5   Z=-13.4180229476075   SpecialJt=No   GUID=f36914dd-d1d4-44da-8154-c8ec744c8134
   Joint=1108736   CoordSys=GLOBAL   CoordType=Cartesian   XorR=3   Y=4.5   Z=-16   SpecialJt=No   GUID=5b9e614f-dbe5-49d5-979a-b5453f3e5417
   Joint=1108737   CoordSys=GLOBAL   CoordType=Cartesian   XorR=6   Y=4.5   Z=-13.4180229476075   SpecialJt=No   GUID=9d11403a-9de1-4aa8-8383-42f4c888a6a9
   Joint=1108738   CoordSys=GLOBAL   CoordType=Cartesian   XorR=6   Y=4.5   Z=-16   SpecialJt=No   GUID=fdb100f9-06bd-4e59-9a33-48b1b9776b98
   Joint=1108739   CoordSys=GLOBAL   CoordType=Cartesian   XorR=9   Y=4.5   Z=-13.4180229476075   SpecialJt=No   GUID=fed7ddc6-5ab3-4a9d-ab70-d71430d5b8bc
   Joint=1108740   CoordSys=GLOBAL   CoordType=Cartesian   XorR=9   Y=4.5   Z=-16   SpecialJt=No   GUID=19a44e42-8e8c-42b9-bfc1-b7cdd1bbe546
   Joint=1108741   CoordSys=GLOBAL   CoordType=Cartesian   XorR=-10   Y=-5   Z=0   SpecialJt=No   GUID=443f107a-53ac-4f93-acab-2f3ae65c8025
   Joint=1108742   CoordSys=GLOBAL   CoordType=Cartesian   XorR=10   Y=-5   Z=0   SpecialJt=No   GUID=475a094f-a5ff-4cdd-bdac-9de23a149721
   Joint=1108743   CoordSys=GLOBAL   CoordType=Cartesian   XorR=-10   Y=5   Z=0   SpecialJt=No   GUID=e3dc87b5-3b58-4538-a777-7264a449259a
   Joint=1108744   CoordSys=GLOBAL   CoordType=Cartesian   XorR=10   Y=5   Z=0   SpecialJt=No   GUID=bdaa4646-1de7-496c-bd63-d7a2c20bf53e
 
TABLE:  "JOINT PATTERN DEFINITIONS"
   Pattern=Default
 
TABLE:  "JOINT RESTRAINT ASSIGNMENTS"
   Joint=1108679   U1=Yes   U2=Yes   U3=No   R1=Yes   R2=Yes   R3=Yes
   Joint=1108680   U1=No   U2=No   U3=Yes   R1=No   R2=No   R3=No
   Joint=1108682   U1=Yes   U2=Yes   U3=No   R1=Yes   R2=Yes   R3=Yes
   Joint=1108683   U1=No   U2=No   U3=Yes   R1=No   R2=No   R3=No
   Joint=1108685   U1=Yes   U2=Yes   U3=No   R1=Yes   R2=Yes   R3=Yes
   Joint=1108686   U1=No   U2=No   U3=Yes   R1=No   R2=No   R3=No
   Joint=1108688   U1=Yes   U2=Yes   U3=No   R1=Yes   R2=Yes   R3=Yes
   Joint=1108689   U1=No   U2=No   U3=Yes   R1=No   R2=No   R3=No
   Joint=1108691   U1=Yes   U2=Yes   U3=No   R1=Yes   R2=Yes   R3=Yes
   Joint=1108692   U1=No   U2=No   U3=Yes   R1=No   R2=No   R3=No
   Joint=1108694   U1=Yes   U2=Yes   U3=No   R1=Yes   R2=Yes   R3=Yes
   Joint=1108695   U1=No   U2=No   U3=Yes   R1=No   R2=No   R3=No
   Joint=1108697   U1=Yes   U2=Yes   U3=No   R1=Yes   R2=Yes   R3=Yes
   Joint=1108698   U1=No   U2=No   U3=Yes   R1=No   R2=No   R3=No
   Joint=1108699   U1=Yes   U2=Yes   U3=No   R1=Yes   R2=Yes   R3=Yes
   Joint=1108700   U1=No   U2=No   U3=Yes   R1=No   R2=No   R3=No
   Joint=1108701   U1=Yes   U2=Yes   U3=No   R1=Yes   R2=Yes   R3=Yes
   Joint=1108702   U1=No   U2=No   U3=Yes   R1=No   R2=No   R3=No
   Joint=1108703   U1=Yes   U2=Yes   U3=No   R1=Yes   R2=Yes   R3=Yes
   Joint=1108704   U1=No   U2=No   U3=Yes   R1=No   R2=No   R3=No
   Joint=1108705   U1=Yes   U2=Yes   U3=No   R1=Yes   R2=Yes   R3=Yes
   Joint=1108706   U1=No   U2=No   U3=Yes   R1=No   R2=No   R3=No
   Joint=1108707   U1=Yes   U2=Yes   U3=No   R1=Yes   R2=Yes   R3=Yes
   Joint=1108708   U1=No   U2=No   U3=Yes   R1=No   R2=No   R3=No
   Joint=1108709   U1=Yes   U2=Yes   U3=No   R1=Yes   R2=Yes   R3=Yes
   Joint=1108710   U1=No   U2=No   U3=Yes   R1=No   R2=No   R3=No
   Joint=1108711   U1=Yes   U2=Yes   U3=No   R1=Yes   R2=Yes   R3=Yes
   Joint=1108712   U1=No   U2=No   U3=Yes   R1=No   R2=No   R3=No
   Joint=1108713   U1=Yes   U2=Yes   U3=No   R1=Yes   R2=Yes   R3=Yes
   Joint=1108714   U1=No   U2=No   U3=Yes   R1=No   R2=No   R3=No
   Joint=1108715   U1=Yes   U2=Yes   U3=No   R1=Yes   R2=Yes   R3=Yes
   Joint=1108716   U1=No   U2=No   U3=Yes   R1=No   R2=No   R3=No
   Joint=1108717   U1=Yes   U2=Yes   U3=No   R1=Yes   R2=Yes   R3=Yes
   Joint=1108718   U1=No   U2=No   U3=Yes   R1=No   R2=No   R3=No
   Joint=1108719   U1=Yes   U2=Yes   U3=No   R1=Yes   R2=Yes   R3=Yes
   Joint=1108720   U1=No   U2=No   U3=Yes   R1=No   R2=No   R3=No
   Joint=1108721   U1=Yes   U2=Yes   U3=No   R1=Yes   R2=Yes   R3=Yes
   Joint=1108722   U1=No   U2=No   U3=Yes   R1=No   R2=No   R3=No
   Joint=1108723   U1=Yes   U2=Yes   U3=No   R1=Yes   R2=Yes   R3=Yes
   Joint=1108724   U1=No   U2=No   U3=Yes   R1=No   R2=No   R3=No
# ... 16 like lines cut
 
TABLE:  "LOAD CASE DEFINITIONS"
   Case=DEAD   Type=LinStatic   InitialCond=Zero   DesTypeOpt="Prog Det"   DesignType=Dead   DesActOpt="Prog Det"   DesignAct=Non-Composite   AutoType=None   RunCase=Yes
   Case=MODAL   Type=LinModal   InitialCond=Zero   DesTypeOpt="Prog Det"   DesignType=Other   DesActOpt="Prog Det"   DesignAct=Other   AutoType=None   RunCase=Yes
   Case=LL   Type=LinStatic   InitialCond=Zero   DesTypeOpt="Prog Det"   DesignType=Live   DesActOpt="Prog Det"   DesignAct="Short-Term Composite"   AutoType=None   RunCase=Yes
 
TABLE:  "LOAD PATTERN DEFINITIONS"
   LoadPat=DEAD   DesignType=Dead   SelfWtMult=1
   LoadPat=LL   DesignType=Live   SelfWtMult=0
 
TABLE:  "MASS SOURCE"
   MassSource=MSSSRC1   Elements=Yes   Masses=Yes   Loads=No   IsDefault=Yes
 
TABLE:  "MATERIAL PROPERTIES 01 - GENERAL"
   Material=A706   Type=Rebar   SymType=Uniaxial   TempDepend=No   Color=Gray8Dark   GUID=30185aab-1311-4f4b-9ffe-ddad707d22d9   Notes="ASTM A706 added 8/23/2025 4:27:57 PM"
   Material=BTCT   Type=Concrete   SymType=Isotropic   TempDepend=No   Color=Blue   Notes="Concrete added 24-Feb-23 16:30:01"
   Material=BTCTCOC   Type=Concrete   SymType=Isotropic   TempDepend=No   Color=Blue   Notes="Concrete added 24-Feb-23 16:30:01"
   Material=Steel   Type=Steel   SymType=Isotropic   TempDepend=No   Color=Magenta   GUID=2f952889-4898-4964-97a4-5fb5c5008d33   Notes="Steel added 8/24/2025 2:51:43 PM"
   Material=Tendon   Type=Tendon   SymType=Uniaxial   TempDepend=No   Color=Yellow   GUID=7dfcd093-823e-4b3a-b96f-35d5bcaf456f   Notes="Tendon added 8/24/2025 2:51:43 PM"
 
TABLE:  "MATERIAL PROPERTIES 02 - BASIC MECHANICAL PROPERTIES"
   Material=A706   UnitWeight=7.84904757236607   UnitMass=0.800380070686609   E1=20389019.1580383   A1=1.16999994421006E-05
   Material=BTCT   UnitWeight=2.40276966501002   UnitMass=0.245014307353044   E1=2900000   G12=1208333.33333333   U12=0.2   A1=9.9E-06
   Material=BTCTCOC   UnitWeight=2.40276966501002   UnitMass=0.245014307353044   E1=3800000000   G12=1583333333.33333   U12=0.2   A1=9.9E-06
   Material=Steel   UnitWeight=7.84904757236607   UnitMass=0.800380070686609   E1=20389019.1580383   G12=7841930.44539935   U12=0.3   A1=1.17E-05
   Material=Tendon   UnitWeight=7.84904757236607   UnitMass=0.800380070686609   E1=20037484.3449687   A1=1.16999994421006E-05
 
TABLE:  "MATERIAL PROPERTIES 03A - STEEL DATA"
   Material=Steel   Fy=35153.4813069626   Fu=45699.5256990514   EffFy=38668.8294376589   EffFu=50269.4782689565   SSCurveOpt=Simple   SSHysType=Kinematic   SHard=0.015   SMax=0.11   SRup=0.17   FinalSlope=-0.1   CoupModType="Von Mises"
 
TABLE:  "MATERIAL PROPERTIES 03B - CONCRETE DATA"
   Material=BTCT   Fc=2812.27850455701   eFc=2812.27850455701   LtWtConc=No   SSCurveOpt=Mander   SSHysType=Takeda   SFc=0.002   SCap=0.005   FinalSlope=-0.1   FAngle=0   DAngle=0   CoupModType="Modified Darwin-Pecknold"
   Material=BTCTCOC   Fc=2812.27850455701   eFc=2812.27850455701   LtWtConc=No   SSCurveOpt=Mander   SSHysType=Takeda   SFc=0.002   SCap=0.005   FinalSlope=-0.1   FAngle=0   DAngle=0   CoupModType="Modified Darwin-Pecknold"
 
TABLE:  "MATERIAL PROPERTIES 03E - REBAR DATA"
   Material=A706   Fy=42184.1775683551   Fu=56245.5700911402   EffFy=46402.5953251907   EffFu=61870.1271002542   SSCurveOpt=Simple   SSHysType=Kinematic   SHard=0.011   SCap=0.11   FinalSlope=-0.1   UseCTDef=No   CoupModType="Von Mises"
 
TABLE:  "MATERIAL PROPERTIES 03F - TENDON DATA"
   Material=Tendon   Fy=172322.365366731   Fu=189828.799057598   SSCurveOpt="270 ksi"   SSHysType=Kinematic   FinalSlope=-0.1   CoupModType="Von Mises"
 
TABLE:  "MATERIAL PROPERTIES 03J - COUPLED NONLINEAR VON MISES DATA"
   Material=A706   YieldStress=46402.5953251907   LinIsoHard=No   LinKinHard=No   NLIsoSaHard=No
   Material=Steel   YieldStress=38668.8294376589   LinIsoHard=No   LinKinHard=No   NLIsoSaHard=No
   Material=Tendon   YieldStress=172322.365366731   LinIsoHard=No   LinKinHard=No   NLIsoSaHard=No
 
TABLE:  "MATERIAL PROPERTIES 06 - DAMPING PARAMETERS"
   Material=A706   ModalRatio=0   VisMass=0   VisStiff=0   HysMass=0   HysStiff=0
   Material=BTCT   ModalRatio=0   VisMass=0   VisStiff=0   HysMass=0   HysStiff=0
   Material=BTCTCOC   ModalRatio=0   VisMass=0   VisStiff=0   HysMass=0   HysStiff=0
   Material=Steel   ModalRatio=0   VisMass=0   VisStiff=0   HysMass=0   HysStiff=0
   Material=Tendon   ModalRatio=0   VisMass=0   VisStiff=0   HysMass=0   HysStiff=0
 
TABLE:  "MATERIAL PROPERTIES 09 - ACCEPTANCE CRITERIA"
   Material=A706   IOTens=0.01   LSTens=0.02   CPTens=0.05   IOComp=-0.005   LSComp=-0.01   CPComp=-0.02
   Material=BTCT   IOTens=0.01   LSTens=0.02   CPTens=0.05   IOComp=-0.003   LSComp=-0.006   CPComp=-0.015   IgnoreTens=Yes
   Material=BTCTCOC   IOTens=0.01   LSTens=0.02   CPTens=0.05   IOComp=-0.003   LSComp=-0.006   CPComp=-0.015   IgnoreTens=Yes
   Material=Steel   IOTens=0.01   LSTens=0.02   CPTens=0.05   IOComp=-0.005   LSComp=-0.01   CPComp=-0.02
   Material=Tendon   IOTens=0.015   LSTens=0.023   CPTens=0.03   IOComp=-0.015   LSComp=-0.023   CPComp=-0.03
 
TABLE:  "OPTIONS - COLORS - DISPLAY"
   DeviceType=Screen   Points=Blue   LinesFrame=Blue   LinesFrmDL=Blue   LinesCable=Green   LinesTendon=Green   SpringLinks=Green   Restraints=Green   Releases=Green   Axes=Cyan   Text=Black   ShadowLines=Gray8Dark   GuideLines=Gray8Dark _
        Highlight=Red   Selection=10504778   AreaFillBot=Red   AreaFillTop=16744703   AreaFillSd=Red   AreaEdge=DarkRed   SolidF1=Red   SolidF2=Blue   SolidF3=Green   SolidF4=Yellow   SolidF5=White   SolidF6=Cyan   SolidEdge=DarkRed _
        Floor=Gray4   Background=White   BGLowLeft=White   BGLowRight=White   BGUpRight=White   Darkness=0.5
   DeviceType=Printer   Points=Gray8Dark   LinesFrame=Black   LinesFrmDL=Gray4   LinesCable=Black   LinesTendon=Black   SpringLinks=Gray8Dark   Restraints=Gray8Dark   Releases=Gray4   Axes=Black   Text=Black   ShadowLines=Gray4 _
        GuideLines=Gray4   Highlight=Black   Selection=Black   AreaFillBot=Gray4   AreaFillTop=Gray8Dark   AreaFillSd=Gray4   AreaEdge=Black   SolidF1=Gray1Light   SolidF2=Gray2   SolidF3=Gray3   SolidF4=Gray4   SolidF5=Gray5 _
        SolidF6=Gray6   SolidEdge=Black   Floor=Gray4   Background=White   BGLowLeft=White   BGLowRight=White   BGUpRight=White   Darkness=0.5
   DeviceType="Color Printer"   Points=Blue   LinesFrame=Blue   LinesFrmDL=Blue   LinesCable=Green   LinesTendon=Green   SpringLinks=Green   Restraints=Green   Releases=Green   Axes=Cyan   Text=Black   ShadowLines=Gray8Dark _
        GuideLines=Gray8Dark   Highlight=Red   Selection=10504778   AreaFillBot=Red   AreaFillTop=16744703   AreaFillSd=Red   AreaEdge=DarkRed   SolidF1=Red   SolidF2=Blue   SolidF3=Green   SolidF4=Yellow   SolidF5=White   SolidF6=Cyan _
        SolidEdge=DarkRed   Floor=Gray4   Background=White   BGLowLeft=White   BGLowRight=White   BGUpRight=White   Darkness=0.5
 
TABLE:  "OPTIONS - COLORS - OUTPUT"
   DeviceType=Screen   Contour1=13107400   Contour2=6553828   Contour3=Red   Contour4=16639   Contour5=Orange   Contour6=43775   Contour7=54527   Contour8=Yellow   Contour9=65408   Contour10=Green   Contour11=8453888   Contour12=Cyan _
        Contour13=16755200   Contour14=16733440   Contour15=Blue   Transpare=0.5   Ratio1=Cyan   Ratio2=Green   Ratio3=Yellow   Ratio4=Orange   Ratio5=Red   RatioNotD=Gray4   RatioNotC=Red   RatioVal1=0.5   RatioVal2=0.7   RatioVal3=0.9 _
        RatioVal4=1   DFillPos=Blue   DFillNeg=Red   DFillRPos=Green   DFillRNeg=Green
   DeviceType=Printer   Contour1=Black   Contour2=3158064   Contour3=4210752   Contour4=5263440   Contour5=6316128   Contour6=7368816   Contour7=Gray8Dark   Contour8=Gray7   Contour9=Gray6   Contour10=Gray5   Contour11=Gray4 _
        Contour12=Gray3   Contour13=Gray2   Contour14=Gray1Light   Contour15=White   Transpare=0   Ratio1=Gray2   Ratio2=Gray4   Ratio3=Gray8Dark   Ratio4=4210752   Ratio5=Black   RatioNotD=Gray4   RatioNotC=Black   RatioVal1=0.5 _
        RatioVal2=0.7   RatioVal3=0.9   RatioVal4=1   DFillPos=Gray8Dark   DFillNeg=Gray8Dark   DFillRPos=4210752   DFillRNeg=4210752
   DeviceType="Color Printer"   Contour1=13107400   Contour2=6553828   Contour3=Red   Contour4=16639   Contour5=Orange   Contour6=43775   Contour7=54527   Contour8=Yellow   Contour9=65408   Contour10=Green   Contour11=8453888 _
        Contour12=Cyan   Contour13=16755200   Contour14=16733440   Contour15=Blue   Transpare=0   Ratio1=Cyan   Ratio2=Green   Ratio3=Yellow   Ratio4=Orange   Ratio5=Red   RatioNotD=Gray4   RatioNotC=Red   RatioVal1=0.5   RatioVal2=0.7 _
        RatioVal3=0.9   RatioVal4=1   DFillPos=Blue   DFillNeg=Red   DFillRPos=Green   DFillRNeg=Green
 
TABLE:  "OVERWRITES - CONCRETE DESIGN - CSA-A233-14"
   Frame=1287065   DesignSect="Program Determined"   FrameType="Program Determined"   RLLF=0   XLMajor=0   XLMinor=0   XKMajor=0   XKMinor=0   CmMajor=0   CmMinor=0   DbMajor=0   DbMinor=0   DsMajor=0   DsMinor=0   Rd=0   Ro=0   MaxAggSize=0
   Frame=1287066   DesignSect="Program Determined"   FrameType="Program Determined"   RLLF=0   XLMajor=0   XLMinor=0   XKMajor=0   XKMinor=0   CmMajor=0   CmMinor=0   DbMajor=0   DbMinor=0   DsMajor=0   DsMinor=0   Rd=0   Ro=0   MaxAggSize=0
   Frame=1287067   DesignSect="Program Determined"   FrameType="Program Determined"   RLLF=0   XLMajor=0   XLMinor=0   XKMajor=0   XKMinor=0   CmMajor=0   CmMinor=0   DbMajor=0   DbMinor=0   DsMajor=0   DsMinor=0   Rd=0   Ro=0   MaxAggSize=0
   Frame=1287068   DesignSect="Program Determined"   FrameType="Program Determined"   RLLF=0   XLMajor=0   XLMinor=0   XKMajor=0   XKMinor=0   CmMajor=0   CmMinor=0   DbMajor=0   DbMinor=0   DsMajor=0   DsMinor=0   Rd=0   Ro=0   MaxAggSize=0
   Frame=1287069   DesignSect="Program Determined"   FrameType="Program Determined"   RLLF=0   XLMajor=0   XLMinor=0   XKMajor=0   XKMinor=0   CmMajor=0   CmMinor=0   DbMajor=0   DbMinor=0   DsMajor=0   DsMinor=0   Rd=0   Ro=0   MaxAggSize=0
   Frame=1287070   DesignSect="Program Determined"   FrameType="Program Determined"   RLLF=0   XLMajor=0   XLMinor=0   XKMajor=0   XKMinor=0   CmMajor=0   CmMinor=0   DbMajor=0   DbMinor=0   DsMajor=0   DsMinor=0   Rd=0   Ro=0   MaxAggSize=0
   Frame=1287071   DesignSect="Program Determined"   FrameType="Program Determined"   RLLF=0   XLMajor=0   XLMinor=0   XKMajor=0   XKMinor=0   CmMajor=0   CmMinor=0   DbMajor=0   DbMinor=0   DsMajor=0   DsMinor=0   Rd=0   Ro=0   MaxAggSize=0
   Frame=1287072   DesignSect="Program Determined"   FrameType="Program Determined"   RLLF=0   XLMajor=0   XLMinor=0   XKMajor=0   XKMinor=0   CmMajor=0   CmMinor=0   DbMajor=0   DbMinor=0   DsMajor=0   DsMinor=0   Rd=0   Ro=0   MaxAggSize=0
   Frame=1287073   DesignSect="Program Determined"   FrameType="Program Determined"   RLLF=0   XLMajor=0   XLMinor=0   XKMajor=0   XKMinor=0   CmMajor=0   CmMinor=0   DbMajor=0   DbMinor=0   DsMajor=0   DsMinor=0   Rd=0   Ro=0   MaxAggSize=0
   Frame=1287074   DesignSect="Program Determined"   FrameType="Program Determined"   RLLF=0   XLMajor=0   XLMinor=0   XKMajor=0   XKMinor=0   CmMajor=0   CmMinor=0   DbMajor=0   DbMinor=0   DsMajor=0   DsMinor=0   Rd=0   Ro=0   MaxAggSize=0
   Frame=1287075   DesignSect="Program Determined"   FrameType="Program Determined"   RLLF=0   XLMajor=0   XLMinor=0   XKMajor=0   XKMinor=0   CmMajor=0   CmMinor=0   DbMajor=0   DbMinor=0   DsMajor=0   DsMinor=0   Rd=0   Ro=0   MaxAggSize=0
   Frame=1287076   DesignSect="Program Determined"   FrameType="Program Determined"   RLLF=0   XLMajor=0   XLMinor=0   XKMajor=0   XKMinor=0   CmMajor=0   CmMinor=0   DbMajor=0   DbMinor=0   DsMajor=0   DsMinor=0   Rd=0   Ro=0   MaxAggSize=0
   Frame=1287077   DesignSect="Program Determined"   FrameType="Program Determined"   RLLF=0   XLMajor=0   XLMinor=0   XKMajor=0   XKMinor=0   CmMajor=0   CmMinor=0   DbMajor=0   DbMinor=0   DsMajor=0   DsMinor=0   Rd=0   Ro=0   MaxAggSize=0
   Frame=1287078   DesignSect="Program Determined"   FrameType="Program Determined"   RLLF=0   XLMajor=0   XLMinor=0   XKMajor=0   XKMinor=0   CmMajor=0   CmMinor=0   DbMajor=0   DbMinor=0   DsMajor=0   DsMinor=0   Rd=0   Ro=0   MaxAggSize=0
   Frame=1287079   DesignSect="Program Determined"   FrameType="Program Determined"   RLLF=0   XLMajor=0   XLMinor=0   XKMajor=0   XKMinor=0   CmMajor=0   CmMinor=0   DbMajor=0   DbMinor=0   DsMajor=0   DsMinor=0   Rd=0   Ro=0   MaxAggSize=0
   Frame=1287080   DesignSect="Program Determined"   FrameType="Program Determined"   RLLF=0   XLMajor=0   XLMinor=0   XKMajor=0   XKMinor=0   CmMajor=0   CmMinor=0   DbMajor=0   DbMinor=0   DsMajor=0   DsMinor=0   Rd=0   Ro=0   MaxAggSize=0
   Frame=1287081   DesignSect="Program Determined"   FrameType="Program Determined"   RLLF=0   XLMajor=0   XLMinor=0   XKMajor=0   XKMinor=0   CmMajor=0   CmMinor=0   DbMajor=0   DbMinor=0   DsMajor=0   DsMinor=0   Rd=0   Ro=0   MaxAggSize=0
   Frame=1287082   DesignSect="Program Determined"   FrameType="Program Determined"   RLLF=0   XLMajor=0   XLMinor=0   XKMajor=0   XKMinor=0   CmMajor=0   CmMinor=0   DbMajor=0   DbMinor=0   DsMajor=0   DsMinor=0   Rd=0   Ro=0   MaxAggSize=0
   Frame=1287083   DesignSect="Program Determined"   FrameType="Program Determined"   RLLF=0   XLMajor=0   XLMinor=0   XKMajor=0   XKMinor=0   CmMajor=0   CmMinor=0   DbMajor=0   DbMinor=0   DsMajor=0   DsMinor=0   Rd=0   Ro=0   MaxAggSize=0
   Frame=1287084   DesignSect="Program Determined"   FrameType="Program Determined"   RLLF=0   XLMajor=0   XLMinor=0   XKMajor=0   XKMinor=0   CmMajor=0   CmMinor=0   DbMajor=0   DbMinor=0   DsMajor=0   DsMinor=0   Rd=0   Ro=0   MaxAggSize=0
# ... 60 like lines cut
 
TABLE:  "PREFERENCES - ALUMINUM DESIGN - AA 2015"
   THDesign=Envelopes   SRatioLimit=1   Provision=ASD   LatFact=1.33333333333333   UseLatFact=No   Bridge=No   OmegaTy=1.65   OmegaTr=1.95   OmegaC=1.65   OmegaBo=1.65   OmegaBr=1.95   OmegaVo=1.65   OmegaVr=1.95
 
TABLE:  "PREFERENCES - COLD FORMED DESIGN - AISI-ASD96"
   THDesign=Envelopes   FrameType="Braced Frame"   SRatioLimit=1   MaxIter=1   OmegaBS=1.67   OmegaBUS=1.67   OmegaBLTB=1.67   OmegaVS=1.67   OmegaVNS=1.5   OmegaT=1.67   OmegaC=1.8
 
TABLE:  "PREFERENCES - CONCRETE DESIGN - CSA-A233-14"
   THDesign=Envelopes   NumCurves=24   NumPoints=11   MinEccen=Yes   BCCDesign=Yes   CTorsion=Yes   PatLLF=0.75   UFLimit=0.95   PhiS=0.85   PhiC=0.65
 
TABLE:  "PREFERENCES - CONCRETE SHELL DESIGN - EUROCODE 2-2004"
   Country="CEN Default"   GammaS=1.15   GammaC=1.5   AlphaCC=1
 
TABLE:  "PREFERENCES - DIMENSIONAL"
   MergeTol=0.001   FineGrid=0.25   Nudge=0.25   SelectTol=3   SnapTol=12   SLineThick=1   PLineThick=4   MaxFont=8   MinFont=3   AutoZoom=10   ShrinkFact=70   TextFileLen=240
 
TABLE:  "PREFERENCES - STEEL DESIGN - AISC 360-10"
   THDesign=Envelopes   FrameType=SMF   PatLLF=0.75   SRatioLimit=0.95   MaxIter=1   SDC=D   SeisCode=No   SeisLoad=No   ImpFactor=1   SystemRho=1   SystemSds=0.5   SystemR=8   SystemCd=5.5   Omega0=3   Provision=LRFD _
        AMethod="Direct Analysis"   SOMethod="General 2nd Order"   SRMethod="Tau-b Fixed"   NLCoeff=0.002   PhiB=0.9   PhiC=0.9   PhiTY=0.9   PhiTF=0.75   PhiV=0.9   PhiVRolledI=1   PhiVT=0.9   PlugWeld=Yes   HSSWelding=ERW   HSSReduceT=No _
        CheckDefl=No   DLRat=120   SDLAndLLRat=120   LLRat=360   TotalRat=240   NetRat=240
 
TABLE:  "PROGRAM CONTROL"
   ProgramName=SAP2000   Version=24.0.0   CurrUnits="Tonf, m, C"   SteelCode="AISC 360-10"   ConcCode="CSA A23.3-14"   AlumCode="AA 2015"   ColdCode=AISI-ASD96   RegenHinge=Yes
 
TABLE:  "PROJECT INFORMATION"
   Item="Company Name"   Data=po
   Item="Client Name"
   Item="Project Name"
   Item="Project Number"
   Item="Model Name"
   Item="Model Description"
   Item="Revision Number"
   Item="Frame Type"
   Item=Engineer
   Item=Checker
   Item=Supervisor
   Item="Issue Code"
   Item="Design Code"
 
TABLE:  "REBAR SIZES"
   RebarID=#2   Area=3.2258E-05   Diameter=0.00635
   RebarID=#3   Area=7.09675996154547E-05   Diameter=0.009525
   RebarID=#4   Area=0.000129032001922727   Diameter=0.0127
   RebarID=#5   Area=0.000199999601538181   Diameter=0.015875
   RebarID=#6   Area=0.000283870398461819   Diameter=0.01905
   RebarID=#7   Area=0.000387096015381813   Diameter=0.022225
   RebarID=#8   Area=0.000509676413843632   Diameter=0.0254
   RebarID=#9   Area=0.00064516   Diameter=0.0286512005329132
   RebarID=#10   Area=0.00081935318769455   Diameter=0.0322579995155334
   RebarID=#11   Area=0.00100644956308365   Diameter=0.0358139991521835
   RebarID=#14   Area=0.00145161   Diameter=0.0430021989583969
   RebarID=#18   Area=0.00258064   Diameter=0.0573277992248535
   RebarID=10M   Area=0.000100000004162606   Diameter=0.0113000003604438
   RebarID=15M   Area=0.000200000008325212   Diameter=0.0160000002402959
   RebarID=20M   Area=0.000300000012487818   Diameter=0.0195000002928606
   RebarID=25M   Area=0.000500000020813031   Diameter=0.0252000011414055
   RebarID=30M   Area=0.000700000029138243   Diameter=0.0299000000675832
   RebarID=35M   Area=0.00100000004162606   Diameter=0.0357000012990997
   RebarID=45M   Area=0.00150000006243909   Diameter=0.0437000014192476
   RebarID=55M   Area=0.00250000010406515   Diameter=0.056400002372922
   RebarID=6d   Area=2.83000004150781E-05   Diameter=0.00600000009011096
   RebarID=8d   Area=5.03000013308514E-05   Diameter=0.00800000012014795
   RebarID=10d   Area=7.85000032676458E-05   Diameter=0.0100000001501849
   RebarID=12d   Area=0.000113000004703745   Diameter=0.0120000001802219
   RebarID=14d   Area=0.000154000006410413   Diameter=0.0140000002102589
   RebarID=16d   Area=0.000201000008366838   Diameter=0.0160000002402959
   RebarID=20d   Area=0.000314000013070583   Diameter=0.0200000003003699
   RebarID=25d   Area=0.000491000020438396   Diameter=0.0250000003754623
   RebarID=26d   Area=0.000531000022103439   Diameter=0.0260000003904808
   RebarID=28d   Area=0.000616000025641654   Diameter=0.0280000004205178
   RebarID=N12   Area=0.000113000004703745   Diameter=0.0120000001802219
   RebarID=N16   Area=0.000201000008366838   Diameter=0.0160000002402959
   RebarID=N20   Area=0.000314000013070583   Diameter=0.0200000003003699
   RebarID=N24   Area=0.00045200001881498   Diameter=0.0240000003604438
   RebarID=N28   Area=0.000616000025641654   Diameter=0.0280000004205178
   RebarID=N32   Area=0.000804000033467353   Diameter=0.0320000004805918
   RebarID=N36   Area=0.00102000004245858   Diameter=0.0360000005406658
 
TABLE:  "SOLID PROPERTY DEFINITIONS"
   SolidProp=Solid1   Material=BTCT   MatAngleA=0   MatAngleB=0   MatAngleC=0   InComp=Yes   Color=Gray8Dark
 
END TABLE DATA
