File D:\ResearchLab\02_Projects\02_Projects\Tap chi XD_SFOA\code\SOO_MPJ\MPJ_Sap\SOO_Displacement_W11\MPJ_11.$2k was saved on m/d/yy at h:mm:ss
 
TABLE:  "ACTIVE DEGREES OF FREEDOM"
   UX=Yes   UY=Yes   UZ=Yes   RX=Yes   RY=Yes   RZ=Yes
 
TABLE:  "ANALYSIS OPTIONS"
   Solver=Advanced   SolverProc=Auto   Force32Bit=No   StiffCase=None   GeomMod=None   HingeOpt="In Elements"   NumAThreads=0   MaxFileSize=0   NumDThreads=0   NumRThreads=0   UseMMFiles="Program Determined"   AllowDiff=No
 
TABLE:  "AREA AUTO MESH ASSIGNMENTS"
   Area=212802   MeshType="Number of Elements"   MeshGroup=ALL   Number1=3   Number2=3   LocalEdge=No   LocalFace=No   SuppEdge=No   SuppFace=No   SubMesh=No
   Area=212803   MeshType="Number of Elements"   MeshGroup=ALL   Number1=3   Number2=3   LocalEdge=No   LocalFace=No   SuppEdge=No   SuppFace=No   SubMesh=No
   Area=212804   MeshType="Number of Elements"   MeshGroup=ALL   Number1=3   Number2=3   LocalEdge=No   LocalFace=No   SuppEdge=No   SuppFace=No   SubMesh=No
   Area=212805   MeshType="Number of Elements"   MeshGroup=ALL   Number1=3   Number2=3   LocalEdge=No   LocalFace=No   SuppEdge=No   SuppFace=No   SubMesh=No
   Area=212806   MeshType="Number of Elements"   MeshGroup=ALL   Number1=3   Number2=3   LocalEdge=No   LocalFace=No   SuppEdge=No   SuppFace=No   SubMesh=No
   Area=212807   MeshType="Number of Elements"   MeshGroup=ALL   Number1=3   Number2=3   LocalEdge=No   LocalFace=No   SuppEdge=No   SuppFace=No   SubMesh=No
   Area=212808   MeshType="Number of Elements"   MeshGroup=ALL   Number1=3   Number2=3   LocalEdge=No   LocalFace=No   SuppEdge=No   SuppFace=No   SubMesh=No
   Area=212809   MeshType="Number of Elements"   MeshGroup=ALL   Number1=3   Number2=3   LocalEdge=No   LocalFace=No   SuppEdge=No   SuppFace=No   SubMesh=No
   Area=212810   MeshType="Number of Elements"   MeshGroup=ALL   Number1=3   Number2=3   LocalEdge=No   LocalFace=No   SuppEdge=No   SuppFace=No   SubMesh=No
   Area=212811   MeshType="Number of Elements"   MeshGroup=ALL   Number1=3   Number2=3   LocalEdge=No   LocalFace=No   SuppEdge=No   SuppFace=No   SubMesh=No
   Area=212812   MeshType="Number of Elements"   MeshGroup=ALL   Number1=3   Number2=3   LocalEdge=No   LocalFace=No   SuppEdge=No   SuppFace=No   SubMesh=No
   Area=212813   MeshType="Number of Elements"   MeshGroup=ALL   Number1=3   Number2=3   LocalEdge=No   LocalFace=No   SuppEdge=No   SuppFace=No   SubMesh=No
   Area=212814   MeshType="Number of Elements"   MeshGroup=ALL   Number1=3   Number2=3   LocalEdge=No   LocalFace=No   SuppEdge=No   SuppFace=No   SubMesh=No
   Area=212815   MeshType="Number of Elements"   MeshGroup=ALL   Number1=3   Number2=3   LocalEdge=No   LocalFace=No   SuppEdge=No   SuppFace=No   SubMesh=No
   Area=212816   MeshType="Number of Elements"   MeshGroup=ALL   Number1=3   Number2=3   LocalEdge=No   LocalFace=No   SuppEdge=No   SuppFace=No   SubMesh=No
   Area=212817   MeshType="Number of Elements"   MeshGroup=ALL   Number1=3   Number2=3   LocalEdge=No   LocalFace=No   SuppEdge=No   SuppFace=No   SubMesh=No
   Area=212818   MeshType="Number of Elements"   MeshGroup=ALL   Number1=3   Number2=3   LocalEdge=No   LocalFace=No   SuppEdge=No   SuppFace=No   SubMesh=No
   Area=212819   MeshType="Number of Elements"   MeshGroup=ALL   Number1=3   Number2=3   LocalEdge=No   LocalFace=No   SuppEdge=No   SuppFace=No   SubMesh=No
   Area=212820   MeshType="Number of Elements"   MeshGroup=ALL   Number1=3   Number2=3   LocalEdge=No   LocalFace=No   SuppEdge=No   SuppFace=No   SubMesh=No
   Area=212821   MeshType="Number of Elements"   MeshGroup=ALL   Number1=3   Number2=3   LocalEdge=No   LocalFace=No   SuppEdge=No   SuppFace=No   SubMesh=No
# ... 20 like lines cut
 
TABLE:  "AREA LOADS - UNIFORM"
   Area=212802   LoadPat=LL   CoordSys=GLOBAL   Dir=Gravity   UnifLoad=1.00034158457019
   Area=212803   LoadPat=LL   CoordSys=GLOBAL   Dir=Gravity   UnifLoad=1.00034158457019
   Area=212804   LoadPat=LL   CoordSys=GLOBAL   Dir=Gravity   UnifLoad=1.00034158457019
   Area=212805   LoadPat=LL   CoordSys=GLOBAL   Dir=Gravity   UnifLoad=1.00034158457019
   Area=212806   LoadPat=LL   CoordSys=GLOBAL   Dir=Gravity   UnifLoad=1.00034158457019
   Area=212807   LoadPat=LL   CoordSys=GLOBAL   Dir=Gravity   UnifLoad=1.00034158457019
   Area=212808   LoadPat=LL   CoordSys=GLOBAL   Dir=Gravity   UnifLoad=1.00034158457019
   Area=212809   LoadPat=LL   CoordSys=GLOBAL   Dir=Gravity   UnifLoad=1.00034158457019
   Area=212810   LoadPat=LL   CoordSys=GLOBAL   Dir=Gravity   UnifLoad=1.00034158457019
   Area=212811   LoadPat=LL   CoordSys=GLOBAL   Dir=Gravity   UnifLoad=1.00034158457019
   Area=212812   LoadPat=LL   CoordSys=GLOBAL   Dir=Gravity   UnifLoad=1.00034158457019
   Area=212813   LoadPat=LL   CoordSys=GLOBAL   Dir=Gravity   UnifLoad=1.00034158457019
   Area=212814   LoadPat=LL   CoordSys=GLOBAL   Dir=Gravity   UnifLoad=1.00034158457019
   Area=212815   LoadPat=LL   CoordSys=GLOBAL   Dir=Gravity   UnifLoad=1.00034158457019
   Area=212816   LoadPat=LL   CoordSys=GLOBAL   Dir=Gravity   UnifLoad=1.00034158457019
   Area=212817   LoadPat=LL   CoordSys=GLOBAL   Dir=Gravity   UnifLoad=1.00034158457019
   Area=212818   LoadPat=LL   CoordSys=GLOBAL   Dir=Gravity   UnifLoad=1.00034158457019
   Area=212819   LoadPat=LL   CoordSys=GLOBAL   Dir=Gravity   UnifLoad=1.00034158457019
   Area=212820   LoadPat=LL   CoordSys=GLOBAL   Dir=Gravity   UnifLoad=1.00034158457019
   Area=212821   LoadPat=LL   CoordSys=GLOBAL   Dir=Gravity   UnifLoad=1.00034158457019
# ... 20 like lines cut
 
TABLE:  "AREA SECTION ASSIGNMENTS"
   Area=212802   Section=Deck   MatProp=Default
   Area=212803   Section=Deck   MatProp=Default
   Area=212804   Section=Deck   MatProp=Default
   Area=212805   Section=Deck   MatProp=Default
   Area=212806   Section=Deck   MatProp=Default
   Area=212807   Section=Deck   MatProp=Default
   Area=212808   Section=Deck   MatProp=Default
   Area=212809   Section=Deck   MatProp=Default
   Area=212810   Section=Deck   MatProp=Default
   Area=212811   Section=Deck   MatProp=Default
   Area=212812   Section=Deck   MatProp=Default
   Area=212813   Section=Deck   MatProp=Default
   Area=212814   Section=Deck   MatProp=Default
   Area=212815   Section=Deck   MatProp=Default
   Area=212816   Section=Deck   MatProp=Default
   Area=212817   Section=Deck   MatProp=Default
   Area=212818   Section=Deck   MatProp=Default
   Area=212819   Section=Deck   MatProp=Default
   Area=212820   Section=Deck   MatProp=Default
   Area=212821   Section=Deck   MatProp=Default
# ... 20 like lines cut
 
TABLE:  "AREA SECTION PROPERTIES"
   Section=Deck   Material=BTCT   MatAngle=0   AreaType=Shell   Type=Shell-Thin   DrillDOF=Yes   Thickness=0.3   BendThick=0.3   Color=Green   F11Mod=1   F22Mod=1   F12Mod=1   M11Mod=1   M22Mod=1   M12Mod=1   V13Mod=1   V23Mod=1   MMod=1 _
        WMod=1   Notes="Added 24-Feb-23 16:56:47"
 
TABLE:  "AREA SECTION PROPERTY DESIGN PARAMETERS"
   Section=Deck   RebarMat=None   RebarOpt=Default
 
TABLE:  "AREA SECTION PROPERTY - TIME DEPENDENT"
   Section=Deck   TypeSize=User   AutoSFSize=1   UserValSize=0.1
 
TABLE:  "AUTO COMBINATION OPTION DATA 01 - GENERAL"
   DesignType=Concrete   AutoGen=Yes
 
TABLE:  "AUTO COMBINATION OPTION DATA 02 - USER DATA"
   DesignType=Concrete   LSType=Strength   LCName=DEAD
   DesignType=Concrete   LSType=Strength   LCName=LL
 
TABLE:  "AUTO WAVE 3 - WAVE CHARACTERISTICS - GENERAL"
   WaveChar=Default   WaveType="From Theory"   KinFactor=1   SWaterDepth=45   WaveHeight=18   WavePeriod=12   WaveTheory=Linear
 
TABLE:  "CASE - MODAL 1 - GENERAL"
   Case=MODAL   ModeType=Eigen   MaxNumModes=12   MinNumModes=1   EigenShift=0   EigenCutoff=0   EigenTol=1E-09   AutoShift=Yes
 
TABLE:  "CASE - STATIC 1 - LOAD ASSIGNMENTS"
   Case=DEAD   LoadType="Load pattern"   LoadName=DEAD   LoadSF=1
   Case=LL   LoadType="Load pattern"   LoadName=LL   LoadSF=1
 
TABLE:  "COMBINATION DEFINITIONS"
   ComboName=COMB1   ComboType="Linear Add"   AutoDesign=No   CaseName=DEAD   ScaleFactor=1   SteelDesign=None   ConcDesign=Strength   AlumDesign=None   ColdDesign=None
   ComboName=COMB2   ComboType="Linear Add"   AutoDesign=No   CaseName=DEAD   ScaleFactor=1   SteelDesign=None   ConcDesign=Strength   AlumDesign=None   ColdDesign=None
   ComboName=COMB2   CaseName=LL   ScaleFactor=1
   ComboName=BAO   ComboType=Envelope   AutoDesign=No   CaseName=COMB1   ScaleFactor=1   SteelDesign=None   ConcDesign=Strength   AlumDesign=None   ColdDesign=None
   ComboName=BAO   CaseName=COMB2   ScaleFactor=1
   ComboName=DCON1   ComboType="Linear Add"   AutoDesign=Yes   CaseName=DEAD   ScaleFactor=1.4   SteelDesign=None   ConcDesign=Strength   AlumDesign=None   ColdDesign=None   GUID=bb4fff9a-98b5-44d1-9fde-34d92700a8e9   Notes="Dead Only; Strength"
   ComboName=DCON2   ComboType="Linear Add"   AutoDesign=Yes   CaseName=DEAD   ScaleFactor=1.25   SteelDesign=None   ConcDesign=Strength   AlumDesign=None   ColdDesign=None   GUID=505bcda7-6fac-4dd0-b03e-c591d1ffc6ce   Notes="Dead + Live; Strength"
   ComboName=DCON2   CaseName=LL   ScaleFactor=1.5
 
TABLE:  "CONNECTIVITY - AREA"
   Area=212802   Joint1=622420   Joint2=622349   Joint3=622308   Joint4=622307   GUID=12c022ec-1fff-4ea7-8688-3492235125ef
   Area=212803   Joint1=622307   Joint2=622308   Joint3=622310   Joint4=622309   GUID=18b02176-7e4d-4d83-8c29-3acfd98bf7af
   Area=212804   Joint1=622309   Joint2=622310   Joint3=622312   Joint4=622311   GUID=fd740180-b365-43e0-9e03-9352e5494d5a
   Area=212805   Joint1=622311   Joint2=622312   Joint3=622314   Joint4=622313   GUID=34b1fc4d-8f2a-4de6-98ac-4183b7323bb7
   Area=212806   Joint1=622313   Joint2=622314   Joint3=622316   Joint4=622315   GUID=63261f10-fc1f-4877-acd6-a309c18a2425
   Area=212807   Joint1=622315   Joint2=622316   Joint3=622318   Joint4=622317   GUID=e6e6a766-6e40-4113-86b6-36541d5548f4
   Area=212808   Joint1=622317   Joint2=622318   Joint3=622320   Joint4=622319   GUID=d7c31afd-40eb-487d-85e4-d5aaa11bafeb
   Area=212809   Joint1=622319   Joint2=622320   Joint3=622353   Joint4=622421   GUID=a7ae2b04-8a3d-4f4b-badb-ca5931de4c67
   Area=212810   Joint1=622349   Joint2=622350   Joint3=622321   Joint4=622308   GUID=c08c6bf2-451f-4ee5-a15f-527256e13bc9
   Area=212811   Joint1=622308   Joint2=622321   Joint3=622322   Joint4=622310   GUID=9bbe0c9f-8015-4f5f-b0bc-498c71ea012c
   Area=212812   Joint1=622310   Joint2=622322   Joint3=622323   Joint4=622312   GUID=5e7264a4-b644-491e-984b-61f881ce9499
   Area=212813   Joint1=622312   Joint2=622323   Joint3=622324   Joint4=622314   GUID=7db9bd77-ac44-4a70-bf9b-c0b7dba9af7d
   Area=212814   Joint1=622314   Joint2=622324   Joint3=622325   Joint4=622316   GUID=e323b0c0-1060-4421-9c50-99c2534f81ba
   Area=212815   Joint1=622316   Joint2=622325   Joint3=622326   Joint4=622318   GUID=4911bfab-919c-4c41-9cf3-bb58c01eb751
   Area=212816   Joint1=622318   Joint2=622326   Joint3=622327   Joint4=622320   GUID=edcf7734-9eda-44d0-b404-d95f9dc262e8
   Area=212817   Joint1=622320   Joint2=622327   Joint3=622354   Joint4=622353   GUID=82576459-6ce2-4ce0-87f2-311c4c5a7a6d
   Area=212818   Joint1=622350   Joint2=622351   Joint3=622328   Joint4=622321   GUID=967daf52-8f53-44d4-a854-5d828811bc3e
   Area=212819   Joint1=622321   Joint2=622328   Joint3=622329   Joint4=622322   GUID=21c13c3b-095d-402c-9a4a-07ed26178a43
   Area=212820   Joint1=622322   Joint2=622329   Joint3=622330   Joint4=622323   GUID=0bb895d5-c5cb-4ce7-b3eb-69886b77155d
   Area=212821   Joint1=622323   Joint2=622330   Joint3=622331   Joint4=622324   GUID=cb87c065-2967-4846-a266-1cdd75709e82
   Area=212822   Joint1=622324   Joint2=622331   Joint3=622332   Joint4=622325   GUID=44dcfc25-f7f0-4b54-9c71-95c15b62c249
   Area=212823   Joint1=622325   Joint2=622332   Joint3=622333   Joint4=622326   GUID=717db951-a907-41fc-9e6e-c701a611a2d4
   Area=212824   Joint1=622326   Joint2=622333   Joint3=622334   Joint4=622327   GUID=fa5fa334-05a5-4d8f-b466-10bd1c395961
   Area=212825   Joint1=622327   Joint2=622334   Joint3=622355   Joint4=622354   GUID=9d179e1a-f48e-4258-bb18-1be5f9a5d3e1
   Area=212826   Joint1=622351   Joint2=622352   Joint3=622335   Joint4=622328   GUID=0d27b673-074c-41d7-86a4-629acd7af1db
   Area=212827   Joint1=622328   Joint2=622335   Joint3=622336   Joint4=622329   GUID=7edc9a7c-5e93-40e4-b5bc-ee95be95de90
   Area=212828   Joint1=622329   Joint2=622336   Joint3=622337   Joint4=622330   GUID=9c325278-6634-4907-a7c6-0600c9f5be39
   Area=212829   Joint1=622330   Joint2=622337   Joint3=622338   Joint4=622331   GUID=c3ac7fad-d608-4d7b-b9d2-be3de1bece3b
   Area=212830   Joint1=622331   Joint2=622338   Joint3=622339   Joint4=622332   GUID=782d575e-b0d3-48f3-8d6a-b8ba8b104c67
   Area=212831   Joint1=622332   Joint2=622339   Joint3=622340   Joint4=622333   GUID=353cfb52-4080-4d08-8bd2-f67dc95eba9b
   Area=212832   Joint1=622333   Joint2=622340   Joint3=622341   Joint4=622334   GUID=7ceae7c4-bb82-4e03-805f-d522d1204f16
   Area=212833   Joint1=622334   Joint2=622341   Joint3=622356   Joint4=622355   GUID=7b15ec36-326e-416d-8d6e-b51c84db98fc
   Area=212834   Joint1=622352   Joint2=622422   Joint3=622342   Joint4=622335   GUID=40655724-010c-4fe0-9433-40cbd2457ffc
   Area=212835   Joint1=622335   Joint2=622342   Joint3=622343   Joint4=622336   GUID=69b0b6a8-59c0-4571-9f3e-a8db690ddc7d
   Area=212836   Joint1=622336   Joint2=622343   Joint3=622344   Joint4=622337   GUID=c6e37b96-09f2-4ed1-b2f0-c6a60a86c059
   Area=212837   Joint1=622337   Joint2=622344   Joint3=622345   Joint4=622338   GUID=836b62ef-36d6-4afb-a22f-0b85aaf3f755
   Area=212838   Joint1=622338   Joint2=622345   Joint3=622346   Joint4=622339   GUID=46bd2f73-07c2-4fcd-8df0-f9c89a2009c6
   Area=212839   Joint1=622339   Joint2=622346   Joint3=622347   Joint4=622340   GUID=c7cd7927-c610-4802-a7d8-e8232c7a236e
   Area=212840   Joint1=622340   Joint2=622347   Joint3=622348   Joint4=622341   GUID=8ef69061-b87b-4a77-8919-d43e0d6d54cd
   Area=212841   Joint1=622341   Joint2=622348   Joint3=622423   Joint4=622356   GUID=c02aea6a-d7e2-482f-bbdf-bb021fc23314
 
TABLE:  "CONNECTIVITY - FRAME"
   Frame=720946   JointI=622307   JointJ=622308   IsCurved=No   GUID=0f13565b-fa72-4079-b258-fbccafdee335
   Frame=720947   JointI=622309   JointJ=622310   IsCurved=No   GUID=a7ebd9aa-be56-4a18-bbb6-6615f63eabf9
   Frame=720948   JointI=622311   JointJ=622312   IsCurved=No   GUID=0a7d9bb1-99f4-4404-919d-be9d72fb4259
   Frame=720949   JointI=622313   JointJ=622314   IsCurved=No   GUID=2d566760-1737-49d9-8013-0b9d71de8079
   Frame=720950   JointI=622315   JointJ=622316   IsCurved=No   GUID=2a901094-7cc5-49a3-9c4e-b48ff7df0b62
   Frame=720951   JointI=622317   JointJ=622318   IsCurved=No   GUID=fbbb54bb-4b50-4a9a-9b4e-71d121c0de73
   Frame=720952   JointI=622319   JointJ=622320   IsCurved=No   GUID=a39cc2dd-69f3-4b4d-89ce-b7215ffcd641
   Frame=720953   JointI=622308   JointJ=622321   IsCurved=No   GUID=d32412bc-97b9-48b6-af9e-470adf8d112d
   Frame=720954   JointI=622310   JointJ=622322   IsCurved=No   GUID=9f208ea5-e444-47cc-ac98-14104be236ed
   Frame=720955   JointI=622312   JointJ=622323   IsCurved=No   GUID=214d9d93-35c7-496c-b530-a2aeb62277c4
   Frame=720956   JointI=622314   JointJ=622324   IsCurved=No   GUID=59336e11-6992-4622-a822-73e64cbd91d4
   Frame=720957   JointI=622316   JointJ=622325   IsCurved=No   GUID=8d371c00-e079-41d2-8837-cfbe52181640
   Frame=720958   JointI=622318   JointJ=622326   IsCurved=No   GUID=42668158-171b-421a-910c-b927fbd178ab
   Frame=720959   JointI=622320   JointJ=622327   IsCurved=No   GUID=4fd213a6-84cf-41c9-9a83-6b7586cdc216
   Frame=720960   JointI=622321   JointJ=622328   IsCurved=No   GUID=e5e05bf3-688b-4c35-b016-5dd7b5ecaf60
   Frame=720961   JointI=622322   JointJ=622329   IsCurved=No   GUID=3d7e2e60-de93-46ae-bc6c-d61ea97f81d1
   Frame=720962   JointI=622323   JointJ=622330   IsCurved=No   GUID=ef02325d-8cf8-406f-8421-085e0a78237b
   Frame=720963   JointI=622324   JointJ=622331   IsCurved=No   GUID=be09f321-f654-40ff-9d6a-f7b9c41e566c
   Frame=720964   JointI=622325   JointJ=622332   IsCurved=No   GUID=241d3ef8-9976-4b92-8b3f-2d9a389f1530
   Frame=720965   JointI=622326   JointJ=622333   IsCurved=No   GUID=1d12e79a-43f9-4998-83a6-2d4422456046
   Frame=720966   JointI=622327   JointJ=622334   IsCurved=No   GUID=695edcda-39b8-4102-acda-4d4d89cf6cfc
   Frame=720967   JointI=622328   JointJ=622335   IsCurved=No   GUID=5d45be6e-330d-4185-93e6-48d26772243b
   Frame=720968   JointI=622329   JointJ=622336   IsCurved=No   GUID=5eb29849-9f88-43d0-ab28-c84294dc6db0
   Frame=720969   JointI=622330   JointJ=622337   IsCurved=No   GUID=c6c45831-c871-4e2b-a7c7-e44e768816b9
   Frame=720970   JointI=622331   JointJ=622338   IsCurved=No   GUID=d90166cc-dbee-4cab-bbdf-bcbe00104c37
   Frame=720971   JointI=622332   JointJ=622339   IsCurved=No   GUID=f9657f8c-03e5-4f84-a1c6-9f501deb0ce9
   Frame=720972   JointI=622333   JointJ=622340   IsCurved=No   GUID=6d32d3ef-c86e-4c28-a1e8-62dddbaaf873
   Frame=720973   JointI=622334   JointJ=622341   IsCurved=No   GUID=747fd128-9d53-4c37-9c56-4bd8858160d2
   Frame=720974   JointI=622335   JointJ=622342   IsCurved=No   GUID=f1292fdb-dedf-4cb1-8084-937d2a8210f0
   Frame=720975   JointI=622336   JointJ=622343   IsCurved=No   GUID=dceb9128-469f-439e-a369-2c767f0887dc
   Frame=720976   JointI=622337   JointJ=622344   IsCurved=No   GUID=55bae59e-737d-4273-9cb1-ec2d6ca21110
   Frame=720977   JointI=622338   JointJ=622345   IsCurved=No   GUID=4a4191d3-9f37-4924-bbb3-4579daf68b2f
   Frame=720978   JointI=622339   JointJ=622346   IsCurved=No   GUID=21e85460-0591-4b33-8274-0701ff6c37b3
   Frame=720979   JointI=622340   JointJ=622347   IsCurved=No   GUID=b30a4b7e-df2f-4eda-9aff-164e3f1c514d
   Frame=720980   JointI=622341   JointJ=622348   IsCurved=No   GUID=5d85a50a-b528-4022-b4ea-580c7c2867ae
   Frame=720981   JointI=622349   JointJ=622308   IsCurved=No   GUID=0114cacc-9ad3-4bed-9921-efbd3ba7c1df
   Frame=720982   JointI=622350   JointJ=622321   IsCurved=No   GUID=e9d25c8b-8412-4a49-8085-cdf4724a3181
   Frame=720983   JointI=622351   JointJ=622328   IsCurved=No   GUID=5d8e052f-9f54-4756-b5d3-bf18660b7e17
   Frame=720984   JointI=622352   JointJ=622335   IsCurved=No   GUID=082a9e98-74e5-45c6-b6b7-cd08a319e5df
   Frame=720985   JointI=622308   JointJ=622310   IsCurved=No   GUID=61eee82c-0e08-4a87-867f-816108631e27
   Frame=720986   JointI=622321   JointJ=622322   IsCurved=No   GUID=716dff08-9071-4dbc-a922-a8daa7ba2177
   Frame=720987   JointI=622328   JointJ=622329   IsCurved=No   GUID=1f36b268-10fa-4056-8039-d070e01b47d8
   Frame=720988   JointI=622335   JointJ=622336   IsCurved=No   GUID=58ecc5e7-a7e4-4407-ae8d-d554ccab473d
   Frame=720989   JointI=622310   JointJ=622312   IsCurved=No   GUID=14f086d7-0300-401a-a7d5-6df7a427876f
   Frame=720990   JointI=622322   JointJ=622323   IsCurved=No   GUID=142c1285-d3f1-4e5b-b021-f90ffd306eef
   Frame=720991   JointI=622329   JointJ=622330   IsCurved=No   GUID=b0f0ee45-f3be-4b05-86e6-bf213697f02b
   Frame=720992   JointI=622336   JointJ=622337   IsCurved=No   GUID=ff8ce0fc-9ab3-4e73-b7b6-0a2ced7bc823
   Frame=720993   JointI=622312   JointJ=622314   IsCurved=No   GUID=554d09c4-bd0d-452b-af6d-342e03cff8e0
   Frame=720994   JointI=622323   JointJ=622324   IsCurved=No   GUID=5eb2c22b-47a9-438e-ae3d-26c3f04f81d0
   Frame=720995   JointI=622330   JointJ=622331   IsCurved=No   GUID=7101713f-2df7-475f-9283-c5974102c379
   Frame=720996   JointI=622337   JointJ=622338   IsCurved=No   GUID=cb7636b3-05d6-47e0-bacb-8fbdcb9fee42
   Frame=720997   JointI=622314   JointJ=622316   IsCurved=No   GUID=1919fa4a-4e46-4746-8f3a-650a5d743b78
   Frame=720998   JointI=622324   JointJ=622325   IsCurved=No   GUID=f0422ede-e171-45cf-aba8-76005ccaf472
   Frame=720999   JointI=622331   JointJ=622332   IsCurved=No   GUID=49d5313a-6323-494e-bd52-8b6a97cfce44
   Frame=721000   JointI=622338   JointJ=622339   IsCurved=No   GUID=afd25832-36be-4802-871f-1e4eaeea601b
   Frame=721001   JointI=622316   JointJ=622318   IsCurved=No   GUID=798e3df6-9dd4-4a8b-a6c8-8cafc06e3e35
   Frame=721002   JointI=622325   JointJ=622326   IsCurved=No   GUID=01b2ed59-19e6-427b-a129-ca3dfd3b0d0b
   Frame=721003   JointI=622332   JointJ=622333   IsCurved=No   GUID=8b1da258-f830-4968-bfda-4fe89a8d676e
   Frame=721004   JointI=622339   JointJ=622340   IsCurved=No   GUID=1431f9aa-4ad3-4b57-87a2-267f36d92a73
   Frame=721005   JointI=622318   JointJ=622320   IsCurved=No   GUID=6975fc90-a39c-48a0-9423-1333acaffd0a
   Frame=721006   JointI=622326   JointJ=622327   IsCurved=No   GUID=7a035e02-aa0e-453d-a3ad-d33abdb53cae
   Frame=721007   JointI=622333   JointJ=622334   IsCurved=No   GUID=1d593e03-3808-4faa-a288-7176a327181a
   Frame=721008   JointI=622340   JointJ=622341   IsCurved=No   GUID=092155bf-1033-4a97-87be-5138a36c610e
   Frame=721009   JointI=622320   JointJ=622353   IsCurved=No   GUID=6c6ed8b9-b252-41bd-b2ab-4e9db4852cac
   Frame=721010   JointI=622327   JointJ=622354   IsCurved=No   GUID=16ba7f66-7c06-4f3f-9eef-4ee8a063c937
   Frame=721011   JointI=622334   JointJ=622355   IsCurved=No   GUID=618d64c3-a709-452a-acb3-43c7c0f272ff
   Frame=721012   JointI=622341   JointJ=622356   IsCurved=No   GUID=848c19b0-18e9-4103-bc33-358076bb453f
   Frame=721013   JointI=622308   JointJ=622357   IsCurved=No   GUID=f68f6583-7d28-4580-8471-23bc2afaf493
   Frame=721014   JointI=622357   JointJ=622358   IsCurved=No   GUID=33ef817f-5459-4af0-9bfa-232e42b59d31
   Frame=721015   JointI=622358   JointJ=622359   IsCurved=No   GUID=209e365b-4347-45fe-87cd-4003e040666f
   Frame=721016   JointI=622310   JointJ=622360   IsCurved=No   GUID=98b1a799-948a-4948-836b-b708b403372a
   Frame=721017   JointI=622360   JointJ=622361   IsCurved=No   GUID=c37d6d49-15ba-4af9-a323-d3f20c39b90e
   Frame=721018   JointI=622361   JointJ=622362   IsCurved=No   GUID=77d1dfca-d174-4f28-b348-3fff1daec1f9
   Frame=721019   JointI=622312   JointJ=622363   IsCurved=No   GUID=32dfa7fc-3579-4444-acb5-820bb9bb1352
   Frame=721020   JointI=622363   JointJ=622364   IsCurved=No   GUID=f402a39f-5dd6-447d-aeca-3605ce962c36
   Frame=721021   JointI=622364   JointJ=622365   IsCurved=No   GUID=14e49fe6-0c19-462e-87a2-7639bfab6c94
   Frame=721022   JointI=622314   JointJ=622366   IsCurved=No   GUID=974e6b22-c7f5-4d4b-91cf-59de580e93cb
   Frame=721023   JointI=622366   JointJ=622367   IsCurved=No   GUID=8ea3d416-19f8-4f8f-bfbe-02af6c54b600
   Frame=721024   JointI=622367   JointJ=622368   IsCurved=No   GUID=c92a6b83-d8ec-4f95-b1d7-40f4058c6845
   Frame=721025   JointI=622316   JointJ=622369   IsCurved=No   GUID=b548ad5f-90c6-475d-805f-1e26d6b68ccd
   Frame=721026   JointI=622369   JointJ=622370   IsCurved=No   GUID=1cc387fc-a3ed-4845-9a97-4e7d9d9e7466
   Frame=721027   JointI=622370   JointJ=622371   IsCurved=No   GUID=fa84384d-e71c-4012-a3a6-36fa672fda5f
   Frame=721028   JointI=622318   JointJ=622372   IsCurved=No   GUID=31b2c8db-ce79-4ab7-b750-c2fa46eb35ac
   Frame=721029   JointI=622372   JointJ=622373   IsCurved=No   GUID=1b5b3979-27e6-45bd-a385-d6058118a6b7
   Frame=721030   JointI=622373   JointJ=622374   IsCurved=No   GUID=8e248298-a64a-47c3-82be-ae8e64ab8c2c
   Frame=721031   JointI=622320   JointJ=622375   IsCurved=No   GUID=6d74fb70-5777-446e-bf5c-0931930cd77b
   Frame=721032   JointI=622375   JointJ=622376   IsCurved=No   GUID=37822006-8500-4c2a-a46b-96e735ff2c8a
   Frame=721033   JointI=622376   JointJ=622377   IsCurved=No   GUID=0f5290de-75c1-4706-96b9-6883ffaeac6b
   Frame=721034   JointI=622321   JointJ=622378   IsCurved=No   GUID=0d099e5b-9e0c-4e94-821c-77ecdf715a59
   Frame=721035   JointI=622378   JointJ=622379   IsCurved=No   GUID=807ff32d-93a5-4f0c-9e5a-4ecd68093585
   Frame=721036   JointI=622322   JointJ=622380   IsCurved=No   GUID=28c7624a-08e6-4ce0-a244-d2dcbeb7d537
   Frame=721037   JointI=622380   JointJ=622381   IsCurved=No   GUID=934647de-4e2c-4dc4-a97b-0dccc87b3b31
   Frame=721038   JointI=622323   JointJ=622382   IsCurved=No   GUID=2fccee57-959a-4f0f-95c7-2b5f859c551f
   Frame=721039   JointI=622382   JointJ=622383   IsCurved=No   GUID=a032612a-c418-4de9-812f-fa580d295b00
   Frame=721040   JointI=622324   JointJ=622384   IsCurved=No   GUID=9eda296b-64e8-4f8d-bd75-e5a72ba89d7c
   Frame=721041   JointI=622384   JointJ=622385   IsCurved=No   GUID=ef2713bc-829d-40e3-8475-73fbee57f5cf
   Frame=721042   JointI=622325   JointJ=622386   IsCurved=No   GUID=e2c2d871-a15e-4b48-aec9-f7dfca7a1fda
   Frame=721043   JointI=622386   JointJ=622387   IsCurved=No   GUID=430a6ab2-3648-46c1-bb91-0af0cae1d997
   Frame=721044   JointI=622326   JointJ=622388   IsCurved=No   GUID=4e7c19c0-9fff-47e0-87dc-1da8800f1056
   Frame=721045   JointI=622388   JointJ=622389   IsCurved=No   GUID=6193cbeb-b8e0-4148-87a2-9e5634c79b08
   Frame=721046   JointI=622327   JointJ=622390   IsCurved=No   GUID=e3311942-6a7d-4a5e-84f7-dd17a4054fba
   Frame=721047   JointI=622390   JointJ=622391   IsCurved=No   GUID=769aebd4-7a91-49a3-a64c-51a289a419cd
   Frame=721048   JointI=622328   JointJ=622392   IsCurved=No   GUID=ecd85fb7-a876-4634-b30d-a6a5dafa5eeb
   Frame=721049   JointI=622392   JointJ=622393   IsCurved=No   GUID=4c42654d-a5b4-49ef-b46e-199bb76f524f
   Frame=721050   JointI=622329   JointJ=622394   IsCurved=No   GUID=6b2a3286-dcb9-4041-bd41-4b3ebc7d8655
   Frame=721051   JointI=622394   JointJ=622395   IsCurved=No   GUID=690148e3-0aed-42c8-85b5-4744eee679b2
   Frame=721052   JointI=622330   JointJ=622396   IsCurved=No   GUID=ed028948-5cdd-4306-a338-df6632dcd5eb
   Frame=721053   JointI=622396   JointJ=622397   IsCurved=No   GUID=6deceec9-05a9-49f9-9c73-6665e52c3fa3
   Frame=721054   JointI=622331   JointJ=622398   IsCurved=No   GUID=ede5ca8d-44d2-4a78-be6c-975e6ae27e15
   Frame=721055   JointI=622398   JointJ=622399   IsCurved=No   GUID=84ef1973-44ae-44d2-a812-b285ebd65ffe
   Frame=721056   JointI=622332   JointJ=622400   IsCurved=No   GUID=d948ebb0-79b3-46aa-af21-e16e82f06aca
   Frame=721057   JointI=622400   JointJ=622401   IsCurved=No   GUID=5fb87872-98e9-4265-b9c9-69b1ce4a7283
   Frame=721058   JointI=622333   JointJ=622402   IsCurved=No   GUID=408b7b0e-aa4a-46b6-a5de-44fbf92c44ce
   Frame=721059   JointI=622402   JointJ=622403   IsCurved=No   GUID=d28baee2-8bd8-4bbf-95bb-dfe0ddf9b72f
   Frame=721060   JointI=622334   JointJ=622404   IsCurved=No   GUID=a8014111-d9e7-48a4-8e5d-fea5587cbb77
   Frame=721061   JointI=622404   JointJ=622405   IsCurved=No   GUID=0d0abaca-64a9-4cbd-b257-ad0a50b70084
   Frame=721062   JointI=622335   JointJ=622406   IsCurved=No   GUID=7575065a-3bdd-418a-9147-379a69c60cd7
   Frame=721063   JointI=622406   JointJ=622407   IsCurved=No   GUID=2698a718-b60c-435e-8d32-e14b908b0b3c
   Frame=721064   JointI=622336   JointJ=622408   IsCurved=No   GUID=282c219e-621b-4f75-8b21-b6daea197f26
   Frame=721065   JointI=622408   JointJ=622409   IsCurved=No   GUID=cb994037-6c56-4965-931c-2300718f4bdd
   Frame=721066   JointI=622337   JointJ=622410   IsCurved=No   GUID=b743bf4e-0b63-4483-a503-91927b0a96c0
   Frame=721067   JointI=622410   JointJ=622411   IsCurved=No   GUID=6caa3445-9210-4c00-9934-132bdfd7e30b
   Frame=721068   JointI=622338   JointJ=622412   IsCurved=No   GUID=89ca9de0-eea7-4217-9142-cd3a92e57fcc
   Frame=721069   JointI=622412   JointJ=622413   IsCurved=No   GUID=c0503ce5-a540-472d-8695-49cf3b847192
   Frame=721070   JointI=622339   JointJ=622414   IsCurved=No   GUID=ac8b9e13-5a40-4ec0-986c-1e593feaacda
   Frame=721071   JointI=622414   JointJ=622415   IsCurved=No   GUID=832e0639-9311-4a9e-bc71-1598c7859f75
   Frame=721072   JointI=622340   JointJ=622416   IsCurved=No   GUID=d906578c-6306-4469-b1fe-61edc8d0e74c
   Frame=721073   JointI=622416   JointJ=622417   IsCurved=No   GUID=e34cef6a-7e46-4e22-9ecf-d9fcca4ef9fb
   Frame=721074   JointI=622341   JointJ=622418   IsCurved=No   GUID=932049eb-368e-4a7a-b987-83746ded1401
   Frame=721075   JointI=622418   JointJ=622419   IsCurved=No   GUID=1352d7f6-66e3-4dfa-b14a-a0d84d68d938
   Frame=721076   JointI=622357   JointJ=622360   IsCurved=No   GUID=e6331d8f-7035-4fec-94a9-528371540467
   Frame=721077   JointI=622360   JointJ=622363   IsCurved=No   GUID=0a496d47-5f5f-41d0-be4d-3fdd2a455595
   Frame=721078   JointI=622363   JointJ=622366   IsCurved=No   GUID=ab1bd78b-56e3-4e8b-9705-c4e496f99c26
   Frame=721079   JointI=622366   JointJ=622369   IsCurved=No   GUID=860ee9bf-e8bf-4cac-9bb1-3060d23a5e3f
   Frame=721080   JointI=622369   JointJ=622372   IsCurved=No   GUID=d3e4d27f-e721-43ac-88d4-0e4ca3c2bed7
   Frame=721081   JointI=622372   JointJ=622375   IsCurved=No   GUID=9efab844-c986-4611-98d3-ef3e9e9e75ce
 
TABLE:  "COORDINATE SYSTEMS"
   Name=GLOBAL   Type=Cartesian   X=0   Y=0   Z=0   AboutZ=0   AboutY=0   AboutX=0
 
TABLE:  "DATABASE DOCUMENTATION"
 
TABLE:  "DATABASE FORMAT TYPES"
   UnitsCurr=Yes   OverrideE=No
 
TABLE:  "FRAME AUTO MESH ASSIGNMENTS"
   Frame=720946   AutoMesh=Yes   AtJoints=Yes   AtFrames=No   NumSegments=0   MaxLength=0   MaxDegrees=0
   Frame=720947   AutoMesh=Yes   AtJoints=Yes   AtFrames=No   NumSegments=0   MaxLength=0   MaxDegrees=0
   Frame=720948   AutoMesh=Yes   AtJoints=Yes   AtFrames=No   NumSegments=0   MaxLength=0   MaxDegrees=0
   Frame=720949   AutoMesh=Yes   AtJoints=Yes   AtFrames=No   NumSegments=0   MaxLength=0   MaxDegrees=0
   Frame=720950   AutoMesh=Yes   AtJoints=Yes   AtFrames=No   NumSegments=0   MaxLength=0   MaxDegrees=0
   Frame=720951   AutoMesh=Yes   AtJoints=Yes   AtFrames=No   NumSegments=0   MaxLength=0   MaxDegrees=0
   Frame=720952   AutoMesh=Yes   AtJoints=Yes   AtFrames=No   NumSegments=0   MaxLength=0   MaxDegrees=0
   Frame=720953   AutoMesh=Yes   AtJoints=Yes   AtFrames=No   NumSegments=0   MaxLength=0   MaxDegrees=0
   Frame=720954   AutoMesh=Yes   AtJoints=Yes   AtFrames=No   NumSegments=0   MaxLength=0   MaxDegrees=0
   Frame=720955   AutoMesh=Yes   AtJoints=Yes   AtFrames=No   NumSegments=0   MaxLength=0   MaxDegrees=0
   Frame=720956   AutoMesh=Yes   AtJoints=Yes   AtFrames=No   NumSegments=0   MaxLength=0   MaxDegrees=0
   Frame=720957   AutoMesh=Yes   AtJoints=Yes   AtFrames=No   NumSegments=0   MaxLength=0   MaxDegrees=0
   Frame=720958   AutoMesh=Yes   AtJoints=Yes   AtFrames=No   NumSegments=0   MaxLength=0   MaxDegrees=0
   Frame=720959   AutoMesh=Yes   AtJoints=Yes   AtFrames=No   NumSegments=0   MaxLength=0   MaxDegrees=0
   Frame=720960   AutoMesh=Yes   AtJoints=Yes   AtFrames=No   NumSegments=0   MaxLength=0   MaxDegrees=0
   Frame=720961   AutoMesh=Yes   AtJoints=Yes   AtFrames=No   NumSegments=0   MaxLength=0   MaxDegrees=0
   Frame=720962   AutoMesh=Yes   AtJoints=Yes   AtFrames=No   NumSegments=0   MaxLength=0   MaxDegrees=0
   Frame=720963   AutoMesh=Yes   AtJoints=Yes   AtFrames=No   NumSegments=0   MaxLength=0   MaxDegrees=0
   Frame=720964   AutoMesh=Yes   AtJoints=Yes   AtFrames=No   NumSegments=0   MaxLength=0   MaxDegrees=0
   Frame=720965   AutoMesh=Yes   AtJoints=Yes   AtFrames=No   NumSegments=0   MaxLength=0   MaxDegrees=0
# ... 116 like lines cut
 
TABLE:  "FRAME DESIGN PROCEDURES"
   Frame=720946   DesignProc="From Material"
   Frame=720947   DesignProc="From Material"
   Frame=720948   DesignProc="From Material"
   Frame=720949   DesignProc="From Material"
   Frame=720950   DesignProc="From Material"
   Frame=720951   DesignProc="From Material"
   Frame=720952   DesignProc="From Material"
   Frame=720953   DesignProc="From Material"
   Frame=720954   DesignProc="From Material"
   Frame=720955   DesignProc="From Material"
   Frame=720956   DesignProc="From Material"
   Frame=720957   DesignProc="From Material"
   Frame=720958   DesignProc="From Material"
   Frame=720959   DesignProc="From Material"
   Frame=720960   DesignProc="From Material"
   Frame=720961   DesignProc="From Material"
   Frame=720962   DesignProc="From Material"
   Frame=720963   DesignProc="From Material"
   Frame=720964   DesignProc="From Material"
   Frame=720965   DesignProc="From Material"
# ... 48 like lines cut
   Frame=721014   DesignProc="No Design"
   Frame=721015   DesignProc="No Design"
   Frame=721016   DesignProc="From Material"
   Frame=721017   DesignProc="No Design"
   Frame=721018   DesignProc="No Design"
   Frame=721019   DesignProc="From Material"
   Frame=721020   DesignProc="No Design"
   Frame=721021   DesignProc="No Design"
   Frame=721022   DesignProc="From Material"
   Frame=721023   DesignProc="No Design"
   Frame=721024   DesignProc="No Design"
   Frame=721025   DesignProc="From Material"
   Frame=721026   DesignProc="No Design"
   Frame=721027   DesignProc="No Design"
   Frame=721028   DesignProc="From Material"
   Frame=721029   DesignProc="No Design"
   Frame=721030   DesignProc="No Design"
   Frame=721031   DesignProc="From Material"
   Frame=721032   DesignProc="No Design"
   Frame=721033   DesignProc="No Design"
   Frame=721034   DesignProc="No Design"
   Frame=721035   DesignProc="No Design"
   Frame=721036   DesignProc="No Design"
   Frame=721037   DesignProc="No Design"
   Frame=721038   DesignProc="No Design"
   Frame=721039   DesignProc="No Design"
   Frame=721040   DesignProc="No Design"
   Frame=721041   DesignProc="No Design"
   Frame=721042   DesignProc="No Design"
   Frame=721043   DesignProc="No Design"
   Frame=721044   DesignProc="No Design"
   Frame=721045   DesignProc="No Design"
   Frame=721046   DesignProc="No Design"
   Frame=721047   DesignProc="No Design"
   Frame=721048   DesignProc="No Design"
   Frame=721049   DesignProc="No Design"
   Frame=721050   DesignProc="No Design"
   Frame=721051   DesignProc="No Design"
# ... 24 like lines cut
   Frame=721076   DesignProc="From Material"
   Frame=721077   DesignProc="From Material"
   Frame=721078   DesignProc="From Material"
   Frame=721079   DesignProc="From Material"
   Frame=721080   DesignProc="From Material"
   Frame=721081   DesignProc="From Material"
 
TABLE:  "FRAME LOAD TRANSFER OPTIONS"
   Frame=720946   Transfer=Yes
   Frame=720947   Transfer=Yes
   Frame=720948   Transfer=Yes
   Frame=720949   Transfer=Yes
   Frame=720950   Transfer=Yes
   Frame=720951   Transfer=Yes
   Frame=720952   Transfer=Yes
   Frame=720953   Transfer=Yes
   Frame=720954   Transfer=Yes
   Frame=720955   Transfer=Yes
   Frame=720956   Transfer=Yes
   Frame=720957   Transfer=Yes
   Frame=720958   Transfer=Yes
   Frame=720959   Transfer=Yes
   Frame=720960   Transfer=Yes
   Frame=720961   Transfer=Yes
   Frame=720962   Transfer=Yes
   Frame=720963   Transfer=Yes
   Frame=720964   Transfer=Yes
   Frame=720965   Transfer=Yes
# ... 116 like lines cut
 
TABLE:  "FRAME LOCAL AXES ASSIGNMENTS 1 - TYPICAL"
   Frame=721013   Angle=90
   Frame=721016   Angle=90
   Frame=721019   Angle=90
   Frame=721022   Angle=90
   Frame=721025   Angle=90
   Frame=721028   Angle=90
   Frame=721031   Angle=90
 
TABLE:  "FRAME OUTPUT STATION ASSIGNMENTS"
   Frame=720946   StationType=MaxStaSpcg   MaxStaSpcg=0.5   AddAtElmInt=Yes   AddAtPtLoad=Yes
   Frame=720947   StationType=MaxStaSpcg   MaxStaSpcg=0.5   AddAtElmInt=Yes   AddAtPtLoad=Yes
   Frame=720948   StationType=MaxStaSpcg   MaxStaSpcg=0.5   AddAtElmInt=Yes   AddAtPtLoad=Yes
   Frame=720949   StationType=MaxStaSpcg   MaxStaSpcg=0.5   AddAtElmInt=Yes   AddAtPtLoad=Yes
   Frame=720950   StationType=MaxStaSpcg   MaxStaSpcg=0.5   AddAtElmInt=Yes   AddAtPtLoad=Yes
   Frame=720951   StationType=MaxStaSpcg   MaxStaSpcg=0.5   AddAtElmInt=Yes   AddAtPtLoad=Yes
   Frame=720952   StationType=MaxStaSpcg   MaxStaSpcg=0.5   AddAtElmInt=Yes   AddAtPtLoad=Yes
   Frame=720953   StationType=MaxStaSpcg   MaxStaSpcg=0.5   AddAtElmInt=Yes   AddAtPtLoad=Yes
   Frame=720954   StationType=MaxStaSpcg   MaxStaSpcg=0.5   AddAtElmInt=Yes   AddAtPtLoad=Yes
   Frame=720955   StationType=MaxStaSpcg   MaxStaSpcg=0.5   AddAtElmInt=Yes   AddAtPtLoad=Yes
   Frame=720956   StationType=MaxStaSpcg   MaxStaSpcg=0.5   AddAtElmInt=Yes   AddAtPtLoad=Yes
   Frame=720957   StationType=MaxStaSpcg   MaxStaSpcg=0.5   AddAtElmInt=Yes   AddAtPtLoad=Yes
   Frame=720958   StationType=MaxStaSpcg   MaxStaSpcg=0.5   AddAtElmInt=Yes   AddAtPtLoad=Yes
   Frame=720959   StationType=MaxStaSpcg   MaxStaSpcg=0.5   AddAtElmInt=Yes   AddAtPtLoad=Yes
   Frame=720960   StationType=MaxStaSpcg   MaxStaSpcg=0.5   AddAtElmInt=Yes   AddAtPtLoad=Yes
   Frame=720961   StationType=MaxStaSpcg   MaxStaSpcg=0.5   AddAtElmInt=Yes   AddAtPtLoad=Yes
   Frame=720962   StationType=MaxStaSpcg   MaxStaSpcg=0.5   AddAtElmInt=Yes   AddAtPtLoad=Yes
   Frame=720963   StationType=MaxStaSpcg   MaxStaSpcg=0.5   AddAtElmInt=Yes   AddAtPtLoad=Yes
   Frame=720964   StationType=MaxStaSpcg   MaxStaSpcg=0.5   AddAtElmInt=Yes   AddAtPtLoad=Yes
   Frame=720965   StationType=MaxStaSpcg   MaxStaSpcg=0.5   AddAtElmInt=Yes   AddAtPtLoad=Yes
# ... 47 like lines cut
   Frame=721013   StationType=MinNumSta   MinNumSta=3   AddAtElmInt=Yes   AddAtPtLoad=Yes
   Frame=721014   StationType=MinNumSta   MinNumSta=3   AddAtElmInt=Yes   AddAtPtLoad=Yes
   Frame=721015   StationType=MinNumSta   MinNumSta=3   AddAtElmInt=Yes   AddAtPtLoad=Yes
   Frame=721016   StationType=MinNumSta   MinNumSta=3   AddAtElmInt=Yes   AddAtPtLoad=Yes
   Frame=721017   StationType=MinNumSta   MinNumSta=3   AddAtElmInt=Yes   AddAtPtLoad=Yes
   Frame=721018   StationType=MinNumSta   MinNumSta=3   AddAtElmInt=Yes   AddAtPtLoad=Yes
   Frame=721019   StationType=MinNumSta   MinNumSta=3   AddAtElmInt=Yes   AddAtPtLoad=Yes
   Frame=721020   StationType=MinNumSta   MinNumSta=3   AddAtElmInt=Yes   AddAtPtLoad=Yes
   Frame=721021   StationType=MinNumSta   MinNumSta=3   AddAtElmInt=Yes   AddAtPtLoad=Yes
   Frame=721022   StationType=MinNumSta   MinNumSta=3   AddAtElmInt=Yes   AddAtPtLoad=Yes
   Frame=721023   StationType=MinNumSta   MinNumSta=3   AddAtElmInt=Yes   AddAtPtLoad=Yes
   Frame=721024   StationType=MinNumSta   MinNumSta=3   AddAtElmInt=Yes   AddAtPtLoad=Yes
   Frame=721025   StationType=MinNumSta   MinNumSta=3   AddAtElmInt=Yes   AddAtPtLoad=Yes
   Frame=721026   StationType=MinNumSta   MinNumSta=3   AddAtElmInt=Yes   AddAtPtLoad=Yes
   Frame=721027   StationType=MinNumSta   MinNumSta=3   AddAtElmInt=Yes   AddAtPtLoad=Yes
   Frame=721028   StationType=MinNumSta   MinNumSta=3   AddAtElmInt=Yes   AddAtPtLoad=Yes
   Frame=721029   StationType=MinNumSta   MinNumSta=3   AddAtElmInt=Yes   AddAtPtLoad=Yes
   Frame=721030   StationType=MinNumSta   MinNumSta=3   AddAtElmInt=Yes   AddAtPtLoad=Yes
   Frame=721031   StationType=MinNumSta   MinNumSta=3   AddAtElmInt=Yes   AddAtPtLoad=Yes
   Frame=721032   StationType=MinNumSta   MinNumSta=3   AddAtElmInt=Yes   AddAtPtLoad=Yes
# ... 43 like lines cut
   Frame=721076   StationType=MaxStaSpcg   MaxStaSpcg=0.5   AddAtElmInt=Yes   AddAtPtLoad=Yes
   Frame=721077   StationType=MaxStaSpcg   MaxStaSpcg=0.5   AddAtElmInt=Yes   AddAtPtLoad=Yes
   Frame=721078   StationType=MaxStaSpcg   MaxStaSpcg=0.5   AddAtElmInt=Yes   AddAtPtLoad=Yes
   Frame=721079   StationType=MaxStaSpcg   MaxStaSpcg=0.5   AddAtElmInt=Yes   AddAtPtLoad=Yes
   Frame=721080   StationType=MaxStaSpcg   MaxStaSpcg=0.5   AddAtElmInt=Yes   AddAtPtLoad=Yes
   Frame=721081   StationType=MaxStaSpcg   MaxStaSpcg=0.5   AddAtElmInt=Yes   AddAtPtLoad=Yes
 
TABLE:  "FRAME SECTION ASSIGNMENTS"
   Frame=720946   AutoSelect=N.A.   AnalSect=TB   MatProp=Default
   Frame=720947   AutoSelect=N.A.   AnalSect=TB   MatProp=Default
   Frame=720948   AutoSelect=N.A.   AnalSect=TB   MatProp=Default
   Frame=720949   AutoSelect=N.A.   AnalSect=TB   MatProp=Default
   Frame=720950   AutoSelect=N.A.   AnalSect=TB   MatProp=Default
   Frame=720951   AutoSelect=N.A.   AnalSect=TB   MatProp=Default
   Frame=720952   AutoSelect=N.A.   AnalSect=TB   MatProp=Default
   Frame=720953   AutoSelect=N.A.   AnalSect=TB   MatProp=Default
   Frame=720954   AutoSelect=N.A.   AnalSect=TB   MatProp=Default
   Frame=720955   AutoSelect=N.A.   AnalSect=TB   MatProp=Default
   Frame=720956   AutoSelect=N.A.   AnalSect=TB   MatProp=Default
   Frame=720957   AutoSelect=N.A.   AnalSect=TB   MatProp=Default
   Frame=720958   AutoSelect=N.A.   AnalSect=TB   MatProp=Default
   Frame=720959   AutoSelect=N.A.   AnalSect=TB   MatProp=Default
   Frame=720960   AutoSelect=N.A.   AnalSect=TB   MatProp=Default
   Frame=720961   AutoSelect=N.A.   AnalSect=TB   MatProp=Default
   Frame=720962   AutoSelect=N.A.   AnalSect=TB   MatProp=Default
   Frame=720963   AutoSelect=N.A.   AnalSect=TB   MatProp=Default
   Frame=720964   AutoSelect=N.A.   AnalSect=TB   MatProp=Default
   Frame=720965   AutoSelect=N.A.   AnalSect=TB   MatProp=Default
# ... 15 like lines cut
   Frame=720981   AutoSelect=N.A.   AnalSect=LB   MatProp=Default
   Frame=720982   AutoSelect=N.A.   AnalSect=LB   MatProp=Default
   Frame=720983   AutoSelect=N.A.   AnalSect=LB   MatProp=Default
   Frame=720984   AutoSelect=N.A.   AnalSect=LB   MatProp=Default
   Frame=720985   AutoSelect=N.A.   AnalSect=LB   MatProp=Default
   Frame=720986   AutoSelect=N.A.   AnalSect=LB   MatProp=Default
   Frame=720987   AutoSelect=N.A.   AnalSect=LB   MatProp=Default
   Frame=720988   AutoSelect=N.A.   AnalSect=LB   MatProp=Default
   Frame=720989   AutoSelect=N.A.   AnalSect=LB   MatProp=Default
   Frame=720990   AutoSelect=N.A.   AnalSect=LB   MatProp=Default
   Frame=720991   AutoSelect=N.A.   AnalSect=LB   MatProp=Default
   Frame=720992   AutoSelect=N.A.   AnalSect=LB   MatProp=Default
   Frame=720993   AutoSelect=N.A.   AnalSect=LB   MatProp=Default
   Frame=720994   AutoSelect=N.A.   AnalSect=LB   MatProp=Default
   Frame=720995   AutoSelect=N.A.   AnalSect=LB   MatProp=Default
   Frame=720996   AutoSelect=N.A.   AnalSect=LB   MatProp=Default
   Frame=720997   AutoSelect=N.A.   AnalSect=LB   MatProp=Default
   Frame=720998   AutoSelect=N.A.   AnalSect=LB   MatProp=Default
   Frame=720999   AutoSelect=N.A.   AnalSect=LB   MatProp=Default
   Frame=721000   AutoSelect=N.A.   AnalSect=LB   MatProp=Default
# ... 12 like lines cut
   Frame=721013   AutoSelect=N.A.   AnalSect=EB   MatProp=Default
   Frame=721014   AutoSelect=N.A.   AnalSect=Piles   MatProp=Default
   Frame=721015   AutoSelect=N.A.   AnalSect=Piles   MatProp=Default
   Frame=721016   AutoSelect=N.A.   AnalSect=EB   MatProp=Default
   Frame=721017   AutoSelect=N.A.   AnalSect=Piles   MatProp=Default
   Frame=721018   AutoSelect=N.A.   AnalSect=Piles   MatProp=Default
   Frame=721019   AutoSelect=N.A.   AnalSect=EB   MatProp=Default
   Frame=721020   AutoSelect=N.A.   AnalSect=Piles   MatProp=Default
   Frame=721021   AutoSelect=N.A.   AnalSect=Piles   MatProp=Default
   Frame=721022   AutoSelect=N.A.   AnalSect=EB   MatProp=Default
   Frame=721023   AutoSelect=N.A.   AnalSect=Piles   MatProp=Default
   Frame=721024   AutoSelect=N.A.   AnalSect=Piles   MatProp=Default
   Frame=721025   AutoSelect=N.A.   AnalSect=EB   MatProp=Default
   Frame=721026   AutoSelect=N.A.   AnalSect=Piles   MatProp=Default
   Frame=721027   AutoSelect=N.A.   AnalSect=Piles   MatProp=Default
   Frame=721028   AutoSelect=N.A.   AnalSect=EB   MatProp=Default
   Frame=721029   AutoSelect=N.A.   AnalSect=Piles   MatProp=Default
   Frame=721030   AutoSelect=N.A.   AnalSect=Piles   MatProp=Default
   Frame=721031   AutoSelect=N.A.   AnalSect=EB   MatProp=Default
   Frame=721032   AutoSelect=N.A.   AnalSect=Piles   MatProp=Default
   Frame=721033   AutoSelect=N.A.   AnalSect=Piles   MatProp=Default
   Frame=721034   AutoSelect=N.A.   AnalSect=Piles   MatProp=Default
   Frame=721035   AutoSelect=N.A.   AnalSect=Piles   MatProp=Default
   Frame=721036   AutoSelect=N.A.   AnalSect=Piles   MatProp=Default
   Frame=721037   AutoSelect=N.A.   AnalSect=Piles   MatProp=Default
   Frame=721038   AutoSelect=N.A.   AnalSect=Piles   MatProp=Default
   Frame=721039   AutoSelect=N.A.   AnalSect=Piles   MatProp=Default
   Frame=721040   AutoSelect=N.A.   AnalSect=Piles   MatProp=Default
   Frame=721041   AutoSelect=N.A.   AnalSect=Piles   MatProp=Default
   Frame=721042   AutoSelect=N.A.   AnalSect=Piles   MatProp=Default
   Frame=721043   AutoSelect=N.A.   AnalSect=Piles   MatProp=Default
   Frame=721044   AutoSelect=N.A.   AnalSect=Piles   MatProp=Default
   Frame=721045   AutoSelect=N.A.   AnalSect=Piles   MatProp=Default
   Frame=721046   AutoSelect=N.A.   AnalSect=Piles   MatProp=Default
   Frame=721047   AutoSelect=N.A.   AnalSect=Piles   MatProp=Default
   Frame=721048   AutoSelect=N.A.   AnalSect=Piles   MatProp=Default
   Frame=721049   AutoSelect=N.A.   AnalSect=Piles   MatProp=Default
   Frame=721050   AutoSelect=N.A.   AnalSect=Piles   MatProp=Default
   Frame=721051   AutoSelect=N.A.   AnalSect=Piles   MatProp=Default
# ... 24 like lines cut
   Frame=721076   AutoSelect=N.A.   AnalSect=EB-1   MatProp=Default
   Frame=721077   AutoSelect=N.A.   AnalSect=EB-1   MatProp=Default
   Frame=721078   AutoSelect=N.A.   AnalSect=EB-1   MatProp=Default
   Frame=721079   AutoSelect=N.A.   AnalSect=EB-1   MatProp=Default
   Frame=721080   AutoSelect=N.A.   AnalSect=EB-1   MatProp=Default
   Frame=721081   AutoSelect=N.A.   AnalSect=EB-1   MatProp=Default
 
TABLE:  "FRAME SECTION PROPERTIES 01 - GENERAL"
   SectionName=EB   Material=BTCT   Shape=Rectangular   t3=1.4   t2=2   Area=2.8   TorsConst=1.03873877613333   I33=0.457333333333333   I22=0.933333333333333   I23=0   AS2=2.33333333333333   AS3=2.33333333333333   S33Top=0.653333333333333 _
        S33Bot=0.653333333333333   S22Left=0.933333333333333   S22Right=0.933333333333333   Z33=0.98   Z22=1.4   R33=0.404145188432738   R22=0.577350269189626   CGOffset3=0   CGOffset2=0   EccV2=0   EccV3=0   Cw=0   Color=Blue   FromFile=No _
        AMod=1   A2Mod=1   A3Mod=1   JMod=1   I2Mod=1   I3Mod=1   MMod=1   WMod=1
   SectionName=EB-1   Material=BTCT   Shape=Rectangular   t3=2   t2=2   Area=4   TorsConst=2.25333333333333   I33=1.33333333333333   I22=1.33333333333333   I23=0   AS2=3.33333333333333   AS3=3.33333333333333   S33Top=1.33333333333333 _
        S33Bot=1.33333333333333   S22Left=1.33333333333333   S22Right=1.33333333333333   Z33=2   Z22=2   R33=0.577350269189626   R22=0.577350269189626   CGOffset3=0   CGOffset2=0   EccV2=0   EccV3=0   Cw=0   Color=Green   FromFile=No _
        AMod=1   A2Mod=1   A3Mod=1   JMod=1   I2Mod=1   I3Mod=1   MMod=1   WMod=1
   SectionName=LB   Material=BTCT   Shape=Rectangular   t3=1.4   t2=2   Area=2.8   TorsConst=1.03873877613333   I33=0.457333333333333   I22=0.933333333333333   I23=0   AS2=2.33333333333333   AS3=2.33333333333333   S33Top=0.653333333333333 _
        S33Bot=0.653333333333333   S22Left=0.933333333333333   S22Right=0.933333333333333   Z33=0.98   Z22=1.4   R33=0.404145188432738   R22=0.577350269189626   CGOffset3=0   CGOffset2=0   EccV2=0   EccV3=0   Cw=0   Color=Gray8Dark _
        FromFile=No   AMod=1   A2Mod=1   A3Mod=1   JMod=1   I2Mod=1   I3Mod=1   MMod=1   WMod=1
   SectionName=Piles   Material=BTCTCOC   Shape=Pipe   t3=1.2   tw=0.15   Area=0.494800842940393   TorsConst=0.139162737076985   I33=0.0695813685384927   I22=0.0695813685384927   I23=0   AS2=0.250743670408983   AS3=0.250743670408983 _
        S33Top=0.115968947564155   S33Bot=0.115968947564155   S22Left=0.115968947564155   S22Right=0.115968947564155   Z33=0.1665   Z22=0.1665   R33=0.375   R22=0.375   CGOffset3=0   CGOffset2=0   EccV2=0   EccV3=0   Cw=0   Color=Cyan _
        FromFile=No   AMod=1   A2Mod=1   A3Mod=1   JMod=1   I2Mod=1   I3Mod=1   MMod=1   WMod=1
   SectionName=TB   Material=BTCT   Shape=Rectangular   t3=1.4   t2=2   Area=2.8   TorsConst=1.03873877613333   I33=0.457333333333333   I22=0.933333333333333   I23=0   AS2=2.33333333333333   AS3=2.33333333333333   S33Top=0.653333333333333 _
        S33Bot=0.653333333333333   S22Left=0.933333333333333   S22Right=0.933333333333333   Z33=0.98   Z22=1.4   R33=0.404145188432738   R22=0.577350269189626   CGOffset3=0   CGOffset2=0   EccV2=0   EccV3=0   Cw=0   Color=Yellow _
        FromFile=No   AMod=1   A2Mod=1   A3Mod=1   JMod=1   I2Mod=1   I3Mod=1   MMod=1   WMod=1
 
TABLE:  "FRAME SECTION PROPERTIES 02 - CONCRETE COLUMN"
   SectionName=EB   RebarMatL=A706   RebarMatC=A706   ReinfConfig=Rectangular   LatReinf=Ties   Cover=0.05   NumBars3Dir=2   NumBars2Dir=2   BarSizeL=12d   BarSizeC=10d   SpacingC=0.1   NumCBars2=2   NumCBars3=2   ReinfType=Design
   SectionName=EB-1   RebarMatL=A706   RebarMatC=A706   ReinfConfig=Rectangular   LatReinf=Ties   Cover=0.05   NumBars3Dir=2   NumBars2Dir=2   BarSizeL=12d   BarSizeC=10d   SpacingC=0.1   NumCBars2=2   NumCBars3=2   ReinfType=Design
   SectionName=LB   RebarMatL=A706   RebarMatC=A706   ReinfConfig=Rectangular   LatReinf=Ties   Cover=0.05   NumBars3Dir=2   NumBars2Dir=2   BarSizeL=12d   BarSizeC=10d   SpacingC=0.1   NumCBars2=2   NumCBars3=2   ReinfType=Design
   SectionName=TB   RebarMatL=A706   RebarMatC=A706   ReinfConfig=Rectangular   LatReinf=Ties   Cover=0.05   NumBars3Dir=2   NumBars2Dir=2   BarSizeL=12d   BarSizeC=10d   SpacingC=0.1   NumCBars2=2   NumCBars3=2   ReinfType=Design
 
TABLE:  "FRAME SECTION PROPERTIES 13 - TIME DEPENDENT"
   SectionName=EB   TypeSize=Auto   AutoSFSize=1
   SectionName=EB-1   TypeSize=Auto   AutoSFSize=1
   SectionName=LB   TypeSize=Auto   AutoSFSize=1
   SectionName=Piles   TypeSize=Auto   AutoSFSize=1
   SectionName=TB   TypeSize=Auto   AutoSFSize=1
 
TABLE:  "FUNCTION - PLOT FUNCTIONS"
   PlotFunc="Input Energy"   Type=Energy   Component=Input   Mode=All
 
TABLE:  "FUNCTION - POWER SPECTRAL DENSITY - USER"
   Name=UNIFPSD   Frequency=0   Value=1
   Name=UNIFPSD   Frequency=1   Value=1
 
TABLE:  "FUNCTION - RESPONSE SPECTRUM - USER"
   Name=UNIFRS   Period=0   Accel=1   FuncDamp=0.05
   Name=UNIFRS   Period=1   Accel=1
 
TABLE:  "FUNCTION - STEADY STATE - USER"
   Name=UNIFSS   Frequency=0   Value=1
   Name=UNIFSS   Frequency=1   Value=1
 
TABLE:  "FUNCTION - TIME HISTORY - USER"
   Name=RAMPTH   Time=0   Value=0
   Name=RAMPTH   Time=1   Value=1
   Name=RAMPTH   Time=4   Value=1
   Name=UNIFTH   Time=0   Value=1
   Name=UNIFTH   Time=1   Value=1
 
TABLE:  "GRID LINES"
   CoordSys=GLOBAL   AxisDir=X   GridID=A   XRYZCoord=-10   LineType=Primary   LineColor=Gray8Dark   Visible=Yes   BubbleLoc=End   AllVisible=Yes   BubbleSize=0.9375
   CoordSys=GLOBAL   AxisDir=X   GridID=B   XRYZCoord=-9   LineType=Primary   LineColor=Gray8Dark   Visible=Yes   BubbleLoc=End
   CoordSys=GLOBAL   AxisDir=X   GridID=C   XRYZCoord=-4.5   LineType=Primary   LineColor=Gray8Dark   Visible=Yes   BubbleLoc=End
   CoordSys=GLOBAL   AxisDir=X   GridID=D   XRYZCoord=0   LineType=Primary   LineColor=Gray8Dark   Visible=Yes   BubbleLoc=End
   CoordSys=GLOBAL   AxisDir=X   GridID=E   XRYZCoord=4.5   LineType=Primary   LineColor=Gray8Dark   Visible=Yes   BubbleLoc=End
   CoordSys=GLOBAL   AxisDir=X   GridID=F   XRYZCoord=9   LineType=Primary   LineColor=Gray8Dark   Visible=Yes   BubbleLoc=End
   CoordSys=GLOBAL   AxisDir=X   GridID=G   XRYZCoord=10   LineType=Primary   LineColor=Gray8Dark   Visible=Yes   BubbleLoc=End
   CoordSys=GLOBAL   AxisDir=Y   GridID=1   XRYZCoord=-5.2   LineType=Primary   LineColor=Gray8Dark   Visible=Yes   BubbleLoc=Start
   CoordSys=GLOBAL   AxisDir=Y   GridID=2   XRYZCoord=-4.2   LineType=Primary   LineColor=Gray8Dark   Visible=Yes   BubbleLoc=Start
   CoordSys=GLOBAL   AxisDir=Y   GridID=3   XRYZCoord=0   LineType=Primary   LineColor=Gray8Dark   Visible=Yes   BubbleLoc=Start
   CoordSys=GLOBAL   AxisDir=Y   GridID=4   XRYZCoord=4.2   LineType=Primary   LineColor=Gray8Dark   Visible=Yes   BubbleLoc=Start
   CoordSys=GLOBAL   AxisDir=Y   GridID=5   XRYZCoord=4.8   LineType=Primary   LineColor=Gray8Dark   Visible=Yes   BubbleLoc=Start
   CoordSys=GLOBAL   AxisDir=Z   GridID=Z1   XRYZCoord=0   LineType=Primary   LineColor=Gray8Dark   Visible=Yes   BubbleLoc=End
   CoordSys=GLOBAL   AxisDir=Z   GridID=Z2   XRYZCoord=13   LineType=Primary   LineColor=Gray8Dark   Visible=Yes   BubbleLoc=End
 
TABLE:  "GROUPS 1 - DEFINITIONS"
   GroupName=ALL   Selection=Yes   SectionCut=Yes   Steel=Yes   Concrete=Yes   Aluminum=Yes   ColdFormed=Yes   Stage=Yes   Bridge=Yes   AutoSeismic=No   AutoWind=No   SelDesSteel=No   SelDesAlum=No   SelDesCold=No   MassWeight=Yes   Color=Red
   GroupName=Pile   Selection=Yes   SectionCut=Yes   Steel=Yes   Concrete=Yes   Aluminum=Yes   ColdFormed=Yes   Stage=Yes   Bridge=Yes   AutoSeismic=No   AutoWind=No   SelDesSteel=No   SelDesAlum=No   SelDesCold=No   MassWeight=Yes   Color=Gray8Dark
   GroupName=DN   Selection=Yes   SectionCut=Yes   Steel=Yes   Concrete=Yes   Aluminum=Yes   ColdFormed=Yes   Stage=Yes   Bridge=Yes   AutoSeismic=No   AutoWind=No   SelDesSteel=No   SelDesAlum=No   SelDesCold=No   MassWeight=Yes   Color=Yellow
   GroupName=Pile_Toe   Selection=Yes   SectionCut=Yes   Steel=Yes   Concrete=Yes   Aluminum=Yes   ColdFormed=Yes   Stage=Yes   Bridge=Yes   AutoSeismic=No   AutoWind=No   SelDesSteel=No   SelDesAlum=No   SelDesCold=No   MassWeight=Yes   Color=Green
   GroupName=Pile_Bend   Selection=Yes   SectionCut=Yes   Steel=Yes   Concrete=Yes   Aluminum=Yes   ColdFormed=Yes   Stage=Yes   Bridge=Yes   AutoSeismic=No   AutoWind=No   SelDesSteel=No   SelDesAlum=No   SelDesCold=No   MassWeight=Yes   Color=Cyan
   GroupName=Beam   Selection=Yes   SectionCut=Yes   Steel=Yes   Concrete=Yes   Aluminum=Yes   ColdFormed=Yes   Stage=Yes   Bridge=Yes   AutoSeismic=No   AutoWind=No   SelDesSteel=No   SelDesAlum=No   SelDesCold=No   MassWeight=Yes   Color=Blue
   GroupName=Piles   Selection=Yes   SectionCut=Yes   Steel=Yes   Concrete=Yes   Aluminum=Yes   ColdFormed=Yes   Stage=Yes   Bridge=Yes   AutoSeismic=No   AutoWind=No   SelDesSteel=No   SelDesAlum=No   SelDesCold=No   MassWeight=Yes   Color=Red
   GroupName=Beams   Selection=Yes   SectionCut=Yes   Steel=Yes   Concrete=Yes   Aluminum=Yes   ColdFormed=Yes   Stage=Yes   Bridge=Yes   AutoSeismic=No   AutoWind=No   SelDesSteel=No   SelDesAlum=No   SelDesCold=No   MassWeight=Yes   Color=Magenta
 
TABLE:  "GROUPS 2 - ASSIGNMENTS"
 
TABLE:  "JOINT COORDINATES"
   Joint=622307   CoordSys=GLOBAL   CoordType=Cartesian   XorR=-9   Y=-5   Z=0   SpecialJt=No   GUID=657cd988-5ef2-4a21-a122-c5d23c4c8c41
   Joint=622308   CoordSys=GLOBAL   CoordType=Cartesian   XorR=-9   Y=-4.5   Z=0   SpecialJt=No   GUID=d267788a-0730-4e9d-9f52-af09a7be562a
   Joint=622309   CoordSys=GLOBAL   CoordType=Cartesian   XorR=-6   Y=-5   Z=0   SpecialJt=No   GUID=54b24923-cde8-4845-9c1d-59e0493c501c
   Joint=622310   CoordSys=GLOBAL   CoordType=Cartesian   XorR=-6   Y=-4.5   Z=0   SpecialJt=No   GUID=87b0ab48-1519-4a7a-85e6-369a1014c050
   Joint=622311   CoordSys=GLOBAL   CoordType=Cartesian   XorR=-3   Y=-5   Z=0   SpecialJt=No   GUID=8554f60f-fbfe-46ac-90d9-5a31f558c42d
   Joint=622312   CoordSys=GLOBAL   CoordType=Cartesian   XorR=-3   Y=-4.5   Z=0   SpecialJt=No   GUID=4170e2cb-9da5-4d3f-8b3c-2d42115481b0
   Joint=622313   CoordSys=GLOBAL   CoordType=Cartesian   XorR=0   Y=-5   Z=0   SpecialJt=No   GUID=ad57b72a-91c9-4db4-92e4-971f10910525
   Joint=622314   CoordSys=GLOBAL   CoordType=Cartesian   XorR=0   Y=-4.5   Z=0   SpecialJt=No   GUID=c19b0c1b-9ed9-4515-b791-56aee16bbef4
   Joint=622315   CoordSys=GLOBAL   CoordType=Cartesian   XorR=3   Y=-5   Z=0   SpecialJt=No   GUID=bb5f0a01-b2a1-41cc-8eab-091e54b56f38
   Joint=622316   CoordSys=GLOBAL   CoordType=Cartesian   XorR=3   Y=-4.5   Z=0   SpecialJt=No   GUID=9832af9b-b8cb-4115-9258-415ae898598d
   Joint=622317   CoordSys=GLOBAL   CoordType=Cartesian   XorR=6   Y=-5   Z=0   SpecialJt=No   GUID=3bdfc2b7-03a2-4487-8f5a-d22ea392bc96
   Joint=622318   CoordSys=GLOBAL   CoordType=Cartesian   XorR=6   Y=-4.5   Z=0   SpecialJt=No   GUID=60a49ddd-444f-4f4d-be46-46549260ce39
   Joint=622319   CoordSys=GLOBAL   CoordType=Cartesian   XorR=9   Y=-5   Z=0   SpecialJt=No   GUID=bbe363b8-7e0c-41d7-b986-511ddce421de
   Joint=622320   CoordSys=GLOBAL   CoordType=Cartesian   XorR=9   Y=-4.5   Z=0   SpecialJt=No   GUID=c9eaf5e9-b8c2-473f-b658-28bceb40c4ff
   Joint=622321   CoordSys=GLOBAL   CoordType=Cartesian   XorR=-9   Y=-1.5   Z=0   SpecialJt=No   GUID=b367c9b9-1d86-4e84-b64a-709e1b46f933
   Joint=622322   CoordSys=GLOBAL   CoordType=Cartesian   XorR=-6   Y=-1.5   Z=0   SpecialJt=No   GUID=cac919b6-e03c-40ab-81f6-89d770dba232
   Joint=622323   CoordSys=GLOBAL   CoordType=Cartesian   XorR=-3   Y=-1.5   Z=0   SpecialJt=No   GUID=f40eadb8-38af-4198-9315-9148c7c35add
   Joint=622324   CoordSys=GLOBAL   CoordType=Cartesian   XorR=0   Y=-1.5   Z=0   SpecialJt=No   GUID=f3ee70fb-9eb4-46b1-8cf0-f6f6310f2d27
   Joint=622325   CoordSys=GLOBAL   CoordType=Cartesian   XorR=3   Y=-1.5   Z=0   SpecialJt=No   GUID=36ff567d-def7-4d25-bb22-61a6dd5675cb
   Joint=622326   CoordSys=GLOBAL   CoordType=Cartesian   XorR=6   Y=-1.5   Z=0   SpecialJt=No   GUID=2a25ddc5-4293-49b7-a831-4d1a7be96ae4
   Joint=622327   CoordSys=GLOBAL   CoordType=Cartesian   XorR=9   Y=-1.5   Z=0   SpecialJt=No   GUID=949bd01c-cf6f-4438-9554-fdbeb74a297b
   Joint=622328   CoordSys=GLOBAL   CoordType=Cartesian   XorR=-9   Y=1.5   Z=0   SpecialJt=No   GUID=7766f952-d99d-41a6-aa8d-0bac177ed991
   Joint=622329   CoordSys=GLOBAL   CoordType=Cartesian   XorR=-6   Y=1.5   Z=0   SpecialJt=No   GUID=ef23af54-2ba5-421f-858e-2c31960d2dbe
   Joint=622330   CoordSys=GLOBAL   CoordType=Cartesian   XorR=-3   Y=1.5   Z=0   SpecialJt=No   GUID=7ff50f43-b65c-49a1-8b53-5dd5ad06c85f
   Joint=622331   CoordSys=GLOBAL   CoordType=Cartesian   XorR=0   Y=1.5   Z=0   SpecialJt=No   GUID=71b23ca6-dc70-4664-b198-4ca9494ecbbe
   Joint=622332   CoordSys=GLOBAL   CoordType=Cartesian   XorR=3   Y=1.5   Z=0   SpecialJt=No   GUID=b1bfa2ca-075a-4d5f-a317-f8ff02351795
   Joint=622333   CoordSys=GLOBAL   CoordType=Cartesian   XorR=6   Y=1.5   Z=0   SpecialJt=No   GUID=a4c8365c-c216-43ff-ac9c-33cf56c7fefa
   Joint=622334   CoordSys=GLOBAL   CoordType=Cartesian   XorR=9   Y=1.5   Z=0   SpecialJt=No   GUID=93871554-709b-4a0d-8e4e-223a8bd7409e
   Joint=622335   CoordSys=GLOBAL   CoordType=Cartesian   XorR=-9   Y=4.5   Z=0   SpecialJt=No   GUID=fe22005d-712f-47e6-8366-6ad3d1b7473b
   Joint=622336   CoordSys=GLOBAL   CoordType=Cartesian   XorR=-6   Y=4.5   Z=0   SpecialJt=No   GUID=70b2078f-c01e-4897-b8fe-d8e4e641d854
   Joint=622337   CoordSys=GLOBAL   CoordType=Cartesian   XorR=-3   Y=4.5   Z=0   SpecialJt=No   GUID=ff55146b-70bc-485a-b14b-8e570105c087
   Joint=622338   CoordSys=GLOBAL   CoordType=Cartesian   XorR=0   Y=4.5   Z=0   SpecialJt=No   GUID=d8efdb64-ea35-4088-8628-dee540b4734a
   Joint=622339   CoordSys=GLOBAL   CoordType=Cartesian   XorR=3   Y=4.5   Z=0   SpecialJt=No   GUID=bf3ce301-8c95-4bb7-82a9-7011d2a9e836
   Joint=622340   CoordSys=GLOBAL   CoordType=Cartesian   XorR=6   Y=4.5   Z=0   SpecialJt=No   GUID=0ea02f93-598f-49e5-ba74-9f442496bd5e
   Joint=622341   CoordSys=GLOBAL   CoordType=Cartesian   XorR=9   Y=4.5   Z=0   SpecialJt=No   GUID=9bb24e81-80a1-49b6-9426-f51f38cc3da5
   Joint=622342   CoordSys=GLOBAL   CoordType=Cartesian   XorR=-9   Y=5   Z=0   SpecialJt=No   GUID=96fb784f-0415-4187-acc0-367fbcf5f9a9
   Joint=622343   CoordSys=GLOBAL   CoordType=Cartesian   XorR=-6   Y=5   Z=0   SpecialJt=No   GUID=6d3ab6bb-aedc-4c3e-97ca-9a718cd850d8
   Joint=622344   CoordSys=GLOBAL   CoordType=Cartesian   XorR=-3   Y=5   Z=0   SpecialJt=No   GUID=b10cf67a-23e2-459b-b4c6-b9cac4667af3
   Joint=622345   CoordSys=GLOBAL   CoordType=Cartesian   XorR=0   Y=5   Z=0   SpecialJt=No   GUID=e3cda808-3b4d-4019-845a-1235ff8cb267
   Joint=622346   CoordSys=GLOBAL   CoordType=Cartesian   XorR=3   Y=5   Z=0   SpecialJt=No   GUID=f4f18a49-bf5e-4d1b-bdb3-c584ea8ee317
   Joint=622347   CoordSys=GLOBAL   CoordType=Cartesian   XorR=6   Y=5   Z=0   SpecialJt=No   GUID=fda95c07-63ae-4199-a81b-64542cda66d7
   Joint=622348   CoordSys=GLOBAL   CoordType=Cartesian   XorR=9   Y=5   Z=0   SpecialJt=No   GUID=ab692ed5-847f-4212-9e97-484efbb3754d
   Joint=622349   CoordSys=GLOBAL   CoordType=Cartesian   XorR=-10   Y=-4.5   Z=0   SpecialJt=No   GUID=cc412804-e939-4245-a735-dded6b632932
   Joint=622350   CoordSys=GLOBAL   CoordType=Cartesian   XorR=-10   Y=-1.5   Z=0   SpecialJt=No   GUID=49fe338f-2856-431e-964a-740c1deea9bd
   Joint=622351   CoordSys=GLOBAL   CoordType=Cartesian   XorR=-10   Y=1.5   Z=0   SpecialJt=No   GUID=d3cb67c1-234a-4268-8da5-db31b0f89770
   Joint=622352   CoordSys=GLOBAL   CoordType=Cartesian   XorR=-10   Y=4.5   Z=0   SpecialJt=No   GUID=51d1d56a-0cd6-4ace-bfb7-2bdfbffb00a3
   Joint=622353   CoordSys=GLOBAL   CoordType=Cartesian   XorR=10   Y=-4.5   Z=0   SpecialJt=No   GUID=41c8adeb-b68d-4efc-a410-5ced59215847
   Joint=622354   CoordSys=GLOBAL   CoordType=Cartesian   XorR=10   Y=-1.5   Z=0   SpecialJt=No   GUID=001f94bc-e7a2-4e1f-8da4-2ae0a805dcd3
   Joint=622355   CoordSys=GLOBAL   CoordType=Cartesian   XorR=10   Y=1.5   Z=0   SpecialJt=No   GUID=c0d1a213-8847-44bc-9c7a-125c24038678
   Joint=622356   CoordSys=GLOBAL   CoordType=Cartesian   XorR=10   Y=4.5   Z=0   SpecialJt=No   GUID=d7f6a18e-df88-4107-8278-f4d5d58ffb3f
   Joint=622357   CoordSys=GLOBAL   CoordType=Cartesian   XorR=-9   Y=-4.5   Z=-3   SpecialJt=No   GUID=f348447e-bab5-4e8a-a134-88ea3bec3ba9
   Joint=622358   CoordSys=GLOBAL   CoordType=Cartesian   XorR=-9   Y=-4.5   Z=-16.7344389692158   SpecialJt=No   GUID=a90a510c-c789-4050-88ac-cd6a375bf75e
   Joint=622359   CoordSys=GLOBAL   CoordType=Cartesian   XorR=-9   Y=-4.5   Z=-16.8   SpecialJt=No   GUID=0ad9fe5f-ade3-49a7-a974-7e187b3619d2
   Joint=622360   CoordSys=GLOBAL   CoordType=Cartesian   XorR=-6   Y=-4.5   Z=-3   SpecialJt=No   GUID=a60a4350-c9a8-4238-ae89-44fa2d3c1fe0
   Joint=622361   CoordSys=GLOBAL   CoordType=Cartesian   XorR=-6   Y=-4.5   Z=-16.7344389692158   SpecialJt=No   GUID=ef4adce0-70a5-4ac9-afbf-73339ce759ff
   Joint=622362   CoordSys=GLOBAL   CoordType=Cartesian   XorR=-6   Y=-4.5   Z=-16.8   SpecialJt=No   GUID=a62cd433-241d-4b59-b7a1-a86a54ed4f61
   Joint=622363   CoordSys=GLOBAL   CoordType=Cartesian   XorR=-3   Y=-4.5   Z=-3   SpecialJt=No   GUID=a8c4bd37-d3b5-43df-a0d5-c17fb169a020
   Joint=622364   CoordSys=GLOBAL   CoordType=Cartesian   XorR=-3   Y=-4.5   Z=-16.7344389692158   SpecialJt=No   GUID=a3584953-e733-4b63-9207-3a3c054fc647
   Joint=622365   CoordSys=GLOBAL   CoordType=Cartesian   XorR=-3   Y=-4.5   Z=-16.8   SpecialJt=No   GUID=2ad3634e-0b17-49f1-9089-d7d2bbac7afe
   Joint=622366   CoordSys=GLOBAL   CoordType=Cartesian   XorR=0   Y=-4.5   Z=-3   SpecialJt=No   GUID=059f2229-ada0-4c1b-9784-5d802821f591
   Joint=622367   CoordSys=GLOBAL   CoordType=Cartesian   XorR=0   Y=-4.5   Z=-16.7344389692158   SpecialJt=No   GUID=7f22d8b9-5a87-425d-a4f6-5d2b4c9f7a21
   Joint=622368   CoordSys=GLOBAL   CoordType=Cartesian   XorR=0   Y=-4.5   Z=-16.8   SpecialJt=No   GUID=cb708fa4-1d79-45f6-8411-64c8dd660fae
   Joint=622369   CoordSys=GLOBAL   CoordType=Cartesian   XorR=3   Y=-4.5   Z=-3   SpecialJt=No   GUID=a73723f0-bb55-458a-a7c5-a3183dc4c05f
   Joint=622370   CoordSys=GLOBAL   CoordType=Cartesian   XorR=3   Y=-4.5   Z=-16.7344389692158   SpecialJt=No   GUID=1e13e4f4-8e85-4f91-80ba-3336c964bcc0
   Joint=622371   CoordSys=GLOBAL   CoordType=Cartesian   XorR=3   Y=-4.5   Z=-16.8   SpecialJt=No   GUID=a61b6db2-0c65-4af6-ab29-41da92bb1a61
   Joint=622372   CoordSys=GLOBAL   CoordType=Cartesian   XorR=6   Y=-4.5   Z=-3   SpecialJt=No   GUID=af562d71-0089-41cf-b02e-07950719cae8
   Joint=622373   CoordSys=GLOBAL   CoordType=Cartesian   XorR=6   Y=-4.5   Z=-16.7344389692158   SpecialJt=No   GUID=8c31fe9b-71c5-402f-9601-1d7815d3d622
   Joint=622374   CoordSys=GLOBAL   CoordType=Cartesian   XorR=6   Y=-4.5   Z=-16.8   SpecialJt=No   GUID=84f60758-c844-4db6-8630-b5df36d62fc7
   Joint=622375   CoordSys=GLOBAL   CoordType=Cartesian   XorR=9   Y=-4.5   Z=-3   SpecialJt=No   GUID=238d054c-82b1-4254-9711-df3ccb2198f2
   Joint=622376   CoordSys=GLOBAL   CoordType=Cartesian   XorR=9   Y=-4.5   Z=-16.7344389692158   SpecialJt=No   GUID=3f26e6f7-fa69-45c5-ad65-779b763d2f24
   Joint=622377   CoordSys=GLOBAL   CoordType=Cartesian   XorR=9   Y=-4.5   Z=-16.8   SpecialJt=No   GUID=fce8c3c2-8b3c-48a9-b1de-02d155d9fb0f
   Joint=622378   CoordSys=GLOBAL   CoordType=Cartesian   XorR=-9   Y=-1.5   Z=-16.7344389692158   SpecialJt=No   GUID=3c686f8f-c877-4666-8090-9f1087767774
   Joint=622379   CoordSys=GLOBAL   CoordType=Cartesian   XorR=-9   Y=-1.5   Z=-16.8   SpecialJt=No   GUID=b55e375d-e0b5-41a9-a4bc-a3f6b4293be8
   Joint=622380   CoordSys=GLOBAL   CoordType=Cartesian   XorR=-6   Y=-1.5   Z=-16.7344389692158   SpecialJt=No   GUID=3f319749-0073-4ac1-bcdd-6c1155f14c65
   Joint=622381   CoordSys=GLOBAL   CoordType=Cartesian   XorR=-6   Y=-1.5   Z=-16.8   SpecialJt=No   GUID=e6221b6d-87e4-4cce-9506-97f85be3465a
   Joint=622382   CoordSys=GLOBAL   CoordType=Cartesian   XorR=-3   Y=-1.5   Z=-16.7344389692158   SpecialJt=No   GUID=cf4f2315-06fe-45af-9077-4c421194d1fa
   Joint=622383   CoordSys=GLOBAL   CoordType=Cartesian   XorR=-3   Y=-1.5   Z=-16.8   SpecialJt=No   GUID=f96217b5-8dc9-4788-b8f3-6e2e7a04bd40
   Joint=622384   CoordSys=GLOBAL   CoordType=Cartesian   XorR=0   Y=-1.5   Z=-16.7344389692158   SpecialJt=No   GUID=b5a786f7-1c4d-4cc2-8043-683dba2d89df
   Joint=622385   CoordSys=GLOBAL   CoordType=Cartesian   XorR=0   Y=-1.5   Z=-16.8   SpecialJt=No   GUID=0f87db3c-6a50-4241-9576-77c8d2394d37
   Joint=622386   CoordSys=GLOBAL   CoordType=Cartesian   XorR=3   Y=-1.5   Z=-16.7344389692158   SpecialJt=No   GUID=466b4fa0-0222-4dcf-b14c-070cf206c0bd
   Joint=622387   CoordSys=GLOBAL   CoordType=Cartesian   XorR=3   Y=-1.5   Z=-16.8   SpecialJt=No   GUID=51e8a1c2-679b-4830-b225-03b5c2ea2dc9
   Joint=622388   CoordSys=GLOBAL   CoordType=Cartesian   XorR=6   Y=-1.5   Z=-16.7344389692158   SpecialJt=No   GUID=1b81e4a7-531c-48e4-988c-87b60c54ba1b
   Joint=622389   CoordSys=GLOBAL   CoordType=Cartesian   XorR=6   Y=-1.5   Z=-16.8   SpecialJt=No   GUID=b53b9dc1-edd5-4d83-a2fe-97bb65c9ef8f
   Joint=622390   CoordSys=GLOBAL   CoordType=Cartesian   XorR=9   Y=-1.5   Z=-16.7344389692158   SpecialJt=No   GUID=9b046278-ee9e-4f15-a3ab-cf1fc63d6153
   Joint=622391   CoordSys=GLOBAL   CoordType=Cartesian   XorR=9   Y=-1.5   Z=-16.8   SpecialJt=No   GUID=0388bc70-4007-4777-9c13-101459e368e5
   Joint=622392   CoordSys=GLOBAL   CoordType=Cartesian   XorR=-9   Y=1.5   Z=-16.7344389692158   SpecialJt=No   GUID=307a851a-e03f-4d8a-aa85-8da633a1289c
   Joint=622393   CoordSys=GLOBAL   CoordType=Cartesian   XorR=-9   Y=1.5   Z=-16.8   SpecialJt=No   GUID=70ee7c3e-42f1-4162-8f9f-c8b1bd5cdbfa
   Joint=622394   CoordSys=GLOBAL   CoordType=Cartesian   XorR=-6   Y=1.5   Z=-16.7344389692158   SpecialJt=No   GUID=46dc5906-ff13-4306-b498-68ceeef3a27e
   Joint=622395   CoordSys=GLOBAL   CoordType=Cartesian   XorR=-6   Y=1.5   Z=-16.8   SpecialJt=No   GUID=84159579-9b59-4dcf-bc0c-a56cd36d3e16
   Joint=622396   CoordSys=GLOBAL   CoordType=Cartesian   XorR=-3   Y=1.5   Z=-16.7344389692158   SpecialJt=No   GUID=638e6189-b6a9-43d9-ac31-73ff77bc1662
   Joint=622397   CoordSys=GLOBAL   CoordType=Cartesian   XorR=-3   Y=1.5   Z=-16.8   SpecialJt=No   GUID=b926f273-c27d-449f-9439-de0d3291f820
   Joint=622398   CoordSys=GLOBAL   CoordType=Cartesian   XorR=0   Y=1.5   Z=-16.7344389692158   SpecialJt=No   GUID=92008257-2875-4006-82f4-6069c5a487a8
   Joint=622399   CoordSys=GLOBAL   CoordType=Cartesian   XorR=0   Y=1.5   Z=-16.8   SpecialJt=No   GUID=4c171cc3-377e-499d-b589-1758102b7b89
   Joint=622400   CoordSys=GLOBAL   CoordType=Cartesian   XorR=3   Y=1.5   Z=-16.7344389692158   SpecialJt=No   GUID=35289742-fc9c-49ed-a29f-7ac3f8e73e20
   Joint=622401   CoordSys=GLOBAL   CoordType=Cartesian   XorR=3   Y=1.5   Z=-16.8   SpecialJt=No   GUID=7b9b49c8-3198-46eb-ae31-ecb7bffdd2bf
   Joint=622402   CoordSys=GLOBAL   CoordType=Cartesian   XorR=6   Y=1.5   Z=-16.7344389692158   SpecialJt=No   GUID=eaf2d229-9a25-4d3b-bad2-c49db246312a
   Joint=622403   CoordSys=GLOBAL   CoordType=Cartesian   XorR=6   Y=1.5   Z=-16.8   SpecialJt=No   GUID=52a2a0b2-4a19-406a-be25-8a7f6aa6bd0b
   Joint=622404   CoordSys=GLOBAL   CoordType=Cartesian   XorR=9   Y=1.5   Z=-16.7344389692158   SpecialJt=No   GUID=69473033-e459-49e0-9e76-26fe36788023
   Joint=622405   CoordSys=GLOBAL   CoordType=Cartesian   XorR=9   Y=1.5   Z=-16.8   SpecialJt=No   GUID=caf89b60-9370-4580-b2a4-f291806b0680
   Joint=622406   CoordSys=GLOBAL   CoordType=Cartesian   XorR=-9   Y=4.5   Z=-16.7344389692158   SpecialJt=No   GUID=c1adbe57-aeca-48c7-b0a2-c07ce2fcf08e
   Joint=622407   CoordSys=GLOBAL   CoordType=Cartesian   XorR=-9   Y=4.5   Z=-16.8   SpecialJt=No   GUID=d9a9c642-110c-4fb6-b4d0-fe3370b9408b
   Joint=622408   CoordSys=GLOBAL   CoordType=Cartesian   XorR=-6   Y=4.5   Z=-16.7344389692158   SpecialJt=No   GUID=92563afd-4d0d-45a8-af39-f337eca3eff8
   Joint=622409   CoordSys=GLOBAL   CoordType=Cartesian   XorR=-6   Y=4.5   Z=-16.8   SpecialJt=No   GUID=3c48defc-871f-418c-b6f8-d13c74360d9c
   Joint=622410   CoordSys=GLOBAL   CoordType=Cartesian   XorR=-3   Y=4.5   Z=-16.7344389692158   SpecialJt=No   GUID=75f90ae1-3851-4752-ae5d-356f16874f52
   Joint=622411   CoordSys=GLOBAL   CoordType=Cartesian   XorR=-3   Y=4.5   Z=-16.8   SpecialJt=No   GUID=a55214e4-10db-4e5a-b215-671edcae49f3
   Joint=622412   CoordSys=GLOBAL   CoordType=Cartesian   XorR=0   Y=4.5   Z=-16.7344389692158   SpecialJt=No   GUID=a7f8096e-cd3a-46d8-817a-d5b5e008d7a7
   Joint=622413   CoordSys=GLOBAL   CoordType=Cartesian   XorR=0   Y=4.5   Z=-16.8   SpecialJt=No   GUID=ff1f061b-eb15-4cc5-b358-307091e8089b
   Joint=622414   CoordSys=GLOBAL   CoordType=Cartesian   XorR=3   Y=4.5   Z=-16.7344389692158   SpecialJt=No   GUID=2ee8d00f-1443-4694-9917-de494316a093
   Joint=622415   CoordSys=GLOBAL   CoordType=Cartesian   XorR=3   Y=4.5   Z=-16.8   SpecialJt=No   GUID=7dff0793-c842-4b22-8e7f-0b031e0882fc
   Joint=622416   CoordSys=GLOBAL   CoordType=Cartesian   XorR=6   Y=4.5   Z=-16.7344389692158   SpecialJt=No   GUID=66065cec-2df9-4786-ab9a-87b59a0f6cb5
   Joint=622417   CoordSys=GLOBAL   CoordType=Cartesian   XorR=6   Y=4.5   Z=-16.8   SpecialJt=No   GUID=7395923c-dc2f-4e1e-89bc-c68c8970ec0d
   Joint=622418   CoordSys=GLOBAL   CoordType=Cartesian   XorR=9   Y=4.5   Z=-16.7344389692158   SpecialJt=No   GUID=a72a2281-bcd9-4572-9cd5-506cdbec2ac0
   Joint=622419   CoordSys=GLOBAL   CoordType=Cartesian   XorR=9   Y=4.5   Z=-16.8   SpecialJt=No   GUID=546baacc-7a08-4fc0-a544-400b0e786cc8
   Joint=622420   CoordSys=GLOBAL   CoordType=Cartesian   XorR=-10   Y=-5   Z=0   SpecialJt=No   GUID=48dee256-7ba5-4d45-8c6f-e393d16e2db0
   Joint=622421   CoordSys=GLOBAL   CoordType=Cartesian   XorR=10   Y=-5   Z=0   SpecialJt=No   GUID=119ea930-b481-4832-8655-f7a2ff2233bb
   Joint=622422   CoordSys=GLOBAL   CoordType=Cartesian   XorR=-10   Y=5   Z=0   SpecialJt=No   GUID=b080ef87-3faf-4981-bb2e-f3dc341f95c5
   Joint=622423   CoordSys=GLOBAL   CoordType=Cartesian   XorR=10   Y=5   Z=0   SpecialJt=No   GUID=236d32ac-3594-4c90-947d-eabcb80385dd
 
TABLE:  "JOINT PATTERN DEFINITIONS"
   Pattern=Default
 
TABLE:  "JOINT RESTRAINT ASSIGNMENTS"
   Joint=622358   U1=Yes   U2=Yes   U3=No   R1=Yes   R2=Yes   R3=Yes
   Joint=622359   U1=No   U2=No   U3=Yes   R1=No   R2=No   R3=No
   Joint=622361   U1=Yes   U2=Yes   U3=No   R1=Yes   R2=Yes   R3=Yes
   Joint=622362   U1=No   U2=No   U3=Yes   R1=No   R2=No   R3=No
   Joint=622364   U1=Yes   U2=Yes   U3=No   R1=Yes   R2=Yes   R3=Yes
   Joint=622365   U1=No   U2=No   U3=Yes   R1=No   R2=No   R3=No
   Joint=622367   U1=Yes   U2=Yes   U3=No   R1=Yes   R2=Yes   R3=Yes
   Joint=622368   U1=No   U2=No   U3=Yes   R1=No   R2=No   R3=No
   Joint=622370   U1=Yes   U2=Yes   U3=No   R1=Yes   R2=Yes   R3=Yes
   Joint=622371   U1=No   U2=No   U3=Yes   R1=No   R2=No   R3=No
   Joint=622373   U1=Yes   U2=Yes   U3=No   R1=Yes   R2=Yes   R3=Yes
   Joint=622374   U1=No   U2=No   U3=Yes   R1=No   R2=No   R3=No
   Joint=622376   U1=Yes   U2=Yes   U3=No   R1=Yes   R2=Yes   R3=Yes
   Joint=622377   U1=No   U2=No   U3=Yes   R1=No   R2=No   R3=No
   Joint=622378   U1=Yes   U2=Yes   U3=No   R1=Yes   R2=Yes   R3=Yes
   Joint=622379   U1=No   U2=No   U3=Yes   R1=No   R2=No   R3=No
   Joint=622380   U1=Yes   U2=Yes   U3=No   R1=Yes   R2=Yes   R3=Yes
   Joint=622381   U1=No   U2=No   U3=Yes   R1=No   R2=No   R3=No
   Joint=622382   U1=Yes   U2=Yes   U3=No   R1=Yes   R2=Yes   R3=Yes
   Joint=622383   U1=No   U2=No   U3=Yes   R1=No   R2=No   R3=No
   Joint=622384   U1=Yes   U2=Yes   U3=No   R1=Yes   R2=Yes   R3=Yes
   Joint=622385   U1=No   U2=No   U3=Yes   R1=No   R2=No   R3=No
   Joint=622386   U1=Yes   U2=Yes   U3=No   R1=Yes   R2=Yes   R3=Yes
   Joint=622387   U1=No   U2=No   U3=Yes   R1=No   R2=No   R3=No
   Joint=622388   U1=Yes   U2=Yes   U3=No   R1=Yes   R2=Yes   R3=Yes
   Joint=622389   U1=No   U2=No   U3=Yes   R1=No   R2=No   R3=No
   Joint=622390   U1=Yes   U2=Yes   U3=No   R1=Yes   R2=Yes   R3=Yes
   Joint=622391   U1=No   U2=No   U3=Yes   R1=No   R2=No   R3=No
   Joint=622392   U1=Yes   U2=Yes   U3=No   R1=Yes   R2=Yes   R3=Yes
   Joint=622393   U1=No   U2=No   U3=Yes   R1=No   R2=No   R3=No
   Joint=622394   U1=Yes   U2=Yes   U3=No   R1=Yes   R2=Yes   R3=Yes
   Joint=622395   U1=No   U2=No   U3=Yes   R1=No   R2=No   R3=No
   Joint=622396   U1=Yes   U2=Yes   U3=No   R1=Yes   R2=Yes   R3=Yes
   Joint=622397   U1=No   U2=No   U3=Yes   R1=No   R2=No   R3=No
   Joint=622398   U1=Yes   U2=Yes   U3=No   R1=Yes   R2=Yes   R3=Yes
   Joint=622399   U1=No   U2=No   U3=Yes   R1=No   R2=No   R3=No
   Joint=622400   U1=Yes   U2=Yes   U3=No   R1=Yes   R2=Yes   R3=Yes
   Joint=622401   U1=No   U2=No   U3=Yes   R1=No   R2=No   R3=No
   Joint=622402   U1=Yes   U2=Yes   U3=No   R1=Yes   R2=Yes   R3=Yes
   Joint=622403   U1=No   U2=No   U3=Yes   R1=No   R2=No   R3=No
# ... 16 like lines cut
 
TABLE:  "LOAD CASE DEFINITIONS"
   Case=DEAD   Type=LinStatic   InitialCond=Zero   DesTypeOpt="Prog Det"   DesignType=Dead   DesActOpt="Prog Det"   DesignAct=Non-Composite   AutoType=None   RunCase=Yes
   Case=MODAL   Type=LinModal   InitialCond=Zero   DesTypeOpt="Prog Det"   DesignType=Other   DesActOpt="Prog Det"   DesignAct=Other   AutoType=None   RunCase=Yes
   Case=LL   Type=LinStatic   InitialCond=Zero   DesTypeOpt="Prog Det"   DesignType=Live   DesActOpt="Prog Det"   DesignAct="Short-Term Composite"   AutoType=None   RunCase=Yes
 
TABLE:  "LOAD PATTERN DEFINITIONS"
   LoadPat=DEAD   DesignType=Dead   SelfWtMult=1
   LoadPat=LL   DesignType=Live   SelfWtMult=0
 
TABLE:  "MASS SOURCE"
   MassSource=MSSSRC1   Elements=Yes   Masses=Yes   Loads=No   IsDefault=Yes
 
TABLE:  "MATERIAL PROPERTIES 01 - GENERAL"
   Material=A706   Type=Rebar   SymType=Uniaxial   TempDepend=No   Color=Gray8Dark   GUID=30185aab-1311-4f4b-9ffe-ddad707d22d9   Notes="ASTM A706 added 8/23/2025 4:27:57 PM"
   Material=BTCT   Type=Concrete   SymType=Isotropic   TempDepend=No   Color=Blue   Notes="Concrete added 24-Feb-23 16:30:01"
   Material=BTCTCOC   Type=Concrete   SymType=Isotropic   TempDepend=No   Color=Blue   Notes="Concrete added 24-Feb-23 16:30:01"
   Material=Steel   Type=Steel   SymType=Isotropic   TempDepend=No   Color=Magenta   GUID=2f952889-4898-4964-97a4-5fb5c5008d33   Notes="Steel added 8/24/2025 2:51:43 PM"
   Material=Tendon   Type=Tendon   SymType=Uniaxial   TempDepend=No   Color=Yellow   GUID=7dfcd093-823e-4b3a-b96f-35d5bcaf456f   Notes="Tendon added 8/24/2025 2:51:43 PM"
 
TABLE:  "MATERIAL PROPERTIES 02 - BASIC MECHANICAL PROPERTIES"
   Material=A706   UnitWeight=7.84904757236607   UnitMass=0.800380070686609   E1=20389019.1580383   A1=1.16999994421006E-05
   Material=BTCT   UnitWeight=2.40276966501002   UnitMass=0.245014307353044   E1=2900000   G12=1208333.33333333   U12=0.2   A1=9.9E-06
   Material=BTCTCOC   UnitWeight=2.40276966501002   UnitMass=0.245014307353044   E1=3800000000   G12=1583333333.33333   U12=0.2   A1=9.9E-06
   Material=Steel   UnitWeight=7.84904757236607   UnitMass=0.800380070686609   E1=20389019.1580383   G12=7841930.44539935   U12=0.3   A1=1.17E-05
   Material=Tendon   UnitWeight=7.84904757236607   UnitMass=0.800380070686609   E1=20037484.3449687   A1=1.16999994421006E-05
 
TABLE:  "MATERIAL PROPERTIES 03A - STEEL DATA"
   Material=Steel   Fy=35153.4813069626   Fu=45699.5256990514   EffFy=38668.8294376589   EffFu=50269.4782689565   SSCurveOpt=Simple   SSHysType=Kinematic   SHard=0.015   SMax=0.11   SRup=0.17   FinalSlope=-0.1   CoupModType="Von Mises"
 
TABLE:  "MATERIAL PROPERTIES 03B - CONCRETE DATA"
   Material=BTCT   Fc=2812.27850455701   eFc=2812.27850455701   LtWtConc=No   SSCurveOpt=Mander   SSHysType=Takeda   SFc=0.002   SCap=0.005   FinalSlope=-0.1   FAngle=0   DAngle=0   CoupModType="Modified Darwin-Pecknold"
   Material=BTCTCOC   Fc=2812.27850455701   eFc=2812.27850455701   LtWtConc=No   SSCurveOpt=Mander   SSHysType=Takeda   SFc=0.002   SCap=0.005   FinalSlope=-0.1   FAngle=0   DAngle=0   CoupModType="Modified Darwin-Pecknold"
 
TABLE:  "MATERIAL PROPERTIES 03E - REBAR DATA"
   Material=A706   Fy=42184.1775683551   Fu=56245.5700911402   EffFy=46402.5953251907   EffFu=61870.1271002542   SSCurveOpt=Simple   SSHysType=Kinematic   SHard=0.011   SCap=0.11   FinalSlope=-0.1   UseCTDef=No   CoupModType="Von Mises"
 
TABLE:  "MATERIAL PROPERTIES 03F - TENDON DATA"
   Material=Tendon   Fy=172322.365366731   Fu=189828.799057598   SSCurveOpt="270 ksi"   SSHysType=Kinematic   FinalSlope=-0.1   CoupModType="Von Mises"
 
TABLE:  "MATERIAL PROPERTIES 03J - COUPLED NONLINEAR VON MISES DATA"
   Material=A706   YieldStress=46402.5953251907   LinIsoHard=No   LinKinHard=No   NLIsoSaHard=No
   Material=Steel   YieldStress=38668.8294376589   LinIsoHard=No   LinKinHard=No   NLIsoSaHard=No
   Material=Tendon   YieldStress=172322.365366731   LinIsoHard=No   LinKinHard=No   NLIsoSaHard=No
 
TABLE:  "MATERIAL PROPERTIES 06 - DAMPING PARAMETERS"
   Material=A706   ModalRatio=0   VisMass=0   VisStiff=0   HysMass=0   HysStiff=0
   Material=BTCT   ModalRatio=0   VisMass=0   VisStiff=0   HysMass=0   HysStiff=0
   Material=BTCTCOC   ModalRatio=0   VisMass=0   VisStiff=0   HysMass=0   HysStiff=0
   Material=Steel   ModalRatio=0   VisMass=0   VisStiff=0   HysMass=0   HysStiff=0
   Material=Tendon   ModalRatio=0   VisMass=0   VisStiff=0   HysMass=0   HysStiff=0
 
TABLE:  "MATERIAL PROPERTIES 09 - ACCEPTANCE CRITERIA"
   Material=A706   IOTens=0.01   LSTens=0.02   CPTens=0.05   IOComp=-0.005   LSComp=-0.01   CPComp=-0.02
   Material=BTCT   IOTens=0.01   LSTens=0.02   CPTens=0.05   IOComp=-0.003   LSComp=-0.006   CPComp=-0.015   IgnoreTens=Yes
   Material=BTCTCOC   IOTens=0.01   LSTens=0.02   CPTens=0.05   IOComp=-0.003   LSComp=-0.006   CPComp=-0.015   IgnoreTens=Yes
   Material=Steel   IOTens=0.01   LSTens=0.02   CPTens=0.05   IOComp=-0.005   LSComp=-0.01   CPComp=-0.02
   Material=Tendon   IOTens=0.015   LSTens=0.023   CPTens=0.03   IOComp=-0.015   LSComp=-0.023   CPComp=-0.03
 
TABLE:  "OPTIONS - COLORS - DISPLAY"
   DeviceType=Screen   Points=Blue   LinesFrame=Blue   LinesFrmDL=Blue   LinesCable=Green   LinesTendon=Green   SpringLinks=Green   Restraints=Green   Releases=Green   Axes=Cyan   Text=Black   ShadowLines=Gray8Dark   GuideLines=Gray8Dark _
        Highlight=Red   Selection=10504778   AreaFillBot=Red   AreaFillTop=16744703   AreaFillSd=Red   AreaEdge=DarkRed   SolidF1=Red   SolidF2=Blue   SolidF3=Green   SolidF4=Yellow   SolidF5=White   SolidF6=Cyan   SolidEdge=DarkRed _
        Floor=Gray4   Background=White   BGLowLeft=White   BGLowRight=White   BGUpRight=White   Darkness=0.5
   DeviceType=Printer   Points=Gray8Dark   LinesFrame=Black   LinesFrmDL=Gray4   LinesCable=Black   LinesTendon=Black   SpringLinks=Gray8Dark   Restraints=Gray8Dark   Releases=Gray4   Axes=Black   Text=Black   ShadowLines=Gray4 _
        GuideLines=Gray4   Highlight=Black   Selection=Black   AreaFillBot=Gray4   AreaFillTop=Gray8Dark   AreaFillSd=Gray4   AreaEdge=Black   SolidF1=Gray1Light   SolidF2=Gray2   SolidF3=Gray3   SolidF4=Gray4   SolidF5=Gray5 _
        SolidF6=Gray6   SolidEdge=Black   Floor=Gray4   Background=White   BGLowLeft=White   BGLowRight=White   BGUpRight=White   Darkness=0.5
   DeviceType="Color Printer"   Points=Blue   LinesFrame=Blue   LinesFrmDL=Blue   LinesCable=Green   LinesTendon=Green   SpringLinks=Green   Restraints=Green   Releases=Green   Axes=Cyan   Text=Black   ShadowLines=Gray8Dark _
        GuideLines=Gray8Dark   Highlight=Red   Selection=10504778   AreaFillBot=Red   AreaFillTop=16744703   AreaFillSd=Red   AreaEdge=DarkRed   SolidF1=Red   SolidF2=Blue   SolidF3=Green   SolidF4=Yellow   SolidF5=White   SolidF6=Cyan _
        SolidEdge=DarkRed   Floor=Gray4   Background=White   BGLowLeft=White   BGLowRight=White   BGUpRight=White   Darkness=0.5
 
TABLE:  "OPTIONS - COLORS - OUTPUT"
   DeviceType=Screen   Contour1=13107400   Contour2=6553828   Contour3=Red   Contour4=16639   Contour5=Orange   Contour6=43775   Contour7=54527   Contour8=Yellow   Contour9=65408   Contour10=Green   Contour11=8453888   Contour12=Cyan _
        Contour13=16755200   Contour14=16733440   Contour15=Blue   Transpare=0.5   Ratio1=Cyan   Ratio2=Green   Ratio3=Yellow   Ratio4=Orange   Ratio5=Red   RatioNotD=Gray4   RatioNotC=Red   RatioVal1=0.5   RatioVal2=0.7   RatioVal3=0.9 _
        RatioVal4=1   DFillPos=Blue   DFillNeg=Red   DFillRPos=Green   DFillRNeg=Green
   DeviceType=Printer   Contour1=Black   Contour2=3158064   Contour3=4210752   Contour4=5263440   Contour5=6316128   Contour6=7368816   Contour7=Gray8Dark   Contour8=Gray7   Contour9=Gray6   Contour10=Gray5   Contour11=Gray4 _
        Contour12=Gray3   Contour13=Gray2   Contour14=Gray1Light   Contour15=White   Transpare=0   Ratio1=Gray2   Ratio2=Gray4   Ratio3=Gray8Dark   Ratio4=4210752   Ratio5=Black   RatioNotD=Gray4   RatioNotC=Black   RatioVal1=0.5 _
        RatioVal2=0.7   RatioVal3=0.9   RatioVal4=1   DFillPos=Gray8Dark   DFillNeg=Gray8Dark   DFillRPos=4210752   DFillRNeg=4210752
   DeviceType="Color Printer"   Contour1=13107400   Contour2=6553828   Contour3=Red   Contour4=16639   Contour5=Orange   Contour6=43775   Contour7=54527   Contour8=Yellow   Contour9=65408   Contour10=Green   Contour11=8453888 _
        Contour12=Cyan   Contour13=16755200   Contour14=16733440   Contour15=Blue   Transpare=0   Ratio1=Cyan   Ratio2=Green   Ratio3=Yellow   Ratio4=Orange   Ratio5=Red   RatioNotD=Gray4   RatioNotC=Red   RatioVal1=0.5   RatioVal2=0.7 _
        RatioVal3=0.9   RatioVal4=1   DFillPos=Blue   DFillNeg=Red   DFillRPos=Green   DFillRNeg=Green
 
TABLE:  "OVERWRITES - CONCRETE DESIGN - CSA-A233-14"
   Frame=720946   DesignSect="Program Determined"   FrameType="Program Determined"   RLLF=0   XLMajor=0   XLMinor=0   XKMajor=0   XKMinor=0   CmMajor=0   CmMinor=0   DbMajor=0   DbMinor=0   DsMajor=0   DsMinor=0   Rd=0   Ro=0   MaxAggSize=0
   Frame=720947   DesignSect="Program Determined"   FrameType="Program Determined"   RLLF=0   XLMajor=0   XLMinor=0   XKMajor=0   XKMinor=0   CmMajor=0   CmMinor=0   DbMajor=0   DbMinor=0   DsMajor=0   DsMinor=0   Rd=0   Ro=0   MaxAggSize=0
   Frame=720948   DesignSect="Program Determined"   FrameType="Program Determined"   RLLF=0   XLMajor=0   XLMinor=0   XKMajor=0   XKMinor=0   CmMajor=0   CmMinor=0   DbMajor=0   DbMinor=0   DsMajor=0   DsMinor=0   Rd=0   Ro=0   MaxAggSize=0
   Frame=720949   DesignSect="Program Determined"   FrameType="Program Determined"   RLLF=0   XLMajor=0   XLMinor=0   XKMajor=0   XKMinor=0   CmMajor=0   CmMinor=0   DbMajor=0   DbMinor=0   DsMajor=0   DsMinor=0   Rd=0   Ro=0   MaxAggSize=0
   Frame=720950   DesignSect="Program Determined"   FrameType="Program Determined"   RLLF=0   XLMajor=0   XLMinor=0   XKMajor=0   XKMinor=0   CmMajor=0   CmMinor=0   DbMajor=0   DbMinor=0   DsMajor=0   DsMinor=0   Rd=0   Ro=0   MaxAggSize=0
   Frame=720951   DesignSect="Program Determined"   FrameType="Program Determined"   RLLF=0   XLMajor=0   XLMinor=0   XKMajor=0   XKMinor=0   CmMajor=0   CmMinor=0   DbMajor=0   DbMinor=0   DsMajor=0   DsMinor=0   Rd=0   Ro=0   MaxAggSize=0
   Frame=720952   DesignSect="Program Determined"   FrameType="Program Determined"   RLLF=0   XLMajor=0   XLMinor=0   XKMajor=0   XKMinor=0   CmMajor=0   CmMinor=0   DbMajor=0   DbMinor=0   DsMajor=0   DsMinor=0   Rd=0   Ro=0   MaxAggSize=0
   Frame=720953   DesignSect="Program Determined"   FrameType="Program Determined"   RLLF=0   XLMajor=0   XLMinor=0   XKMajor=0   XKMinor=0   CmMajor=0   CmMinor=0   DbMajor=0   DbMinor=0   DsMajor=0   DsMinor=0   Rd=0   Ro=0   MaxAggSize=0
   Frame=720954   DesignSect="Program Determined"   FrameType="Program Determined"   RLLF=0   XLMajor=0   XLMinor=0   XKMajor=0   XKMinor=0   CmMajor=0   CmMinor=0   DbMajor=0   DbMinor=0   DsMajor=0   DsMinor=0   Rd=0   Ro=0   MaxAggSize=0
   Frame=720955   DesignSect="Program Determined"   FrameType="Program Determined"   RLLF=0   XLMajor=0   XLMinor=0   XKMajor=0   XKMinor=0   CmMajor=0   CmMinor=0   DbMajor=0   DbMinor=0   DsMajor=0   DsMinor=0   Rd=0   Ro=0   MaxAggSize=0
   Frame=720956   DesignSect="Program Determined"   FrameType="Program Determined"   RLLF=0   XLMajor=0   XLMinor=0   XKMajor=0   XKMinor=0   CmMajor=0   CmMinor=0   DbMajor=0   DbMinor=0   DsMajor=0   DsMinor=0   Rd=0   Ro=0   MaxAggSize=0
   Frame=720957   DesignSect="Program Determined"   FrameType="Program Determined"   RLLF=0   XLMajor=0   XLMinor=0   XKMajor=0   XKMinor=0   CmMajor=0   CmMinor=0   DbMajor=0   DbMinor=0   DsMajor=0   DsMinor=0   Rd=0   Ro=0   MaxAggSize=0
   Frame=720958   DesignSect="Program Determined"   FrameType="Program Determined"   RLLF=0   XLMajor=0   XLMinor=0   XKMajor=0   XKMinor=0   CmMajor=0   CmMinor=0   DbMajor=0   DbMinor=0   DsMajor=0   DsMinor=0   Rd=0   Ro=0   MaxAggSize=0
   Frame=720959   DesignSect="Program Determined"   FrameType="Program Determined"   RLLF=0   XLMajor=0   XLMinor=0   XKMajor=0   XKMinor=0   CmMajor=0   CmMinor=0   DbMajor=0   DbMinor=0   DsMajor=0   DsMinor=0   Rd=0   Ro=0   MaxAggSize=0
   Frame=720960   DesignSect="Program Determined"   FrameType="Program Determined"   RLLF=0   XLMajor=0   XLMinor=0   XKMajor=0   XKMinor=0   CmMajor=0   CmMinor=0   DbMajor=0   DbMinor=0   DsMajor=0   DsMinor=0   Rd=0   Ro=0   MaxAggSize=0
   Frame=720961   DesignSect="Program Determined"   FrameType="Program Determined"   RLLF=0   XLMajor=0   XLMinor=0   XKMajor=0   XKMinor=0   CmMajor=0   CmMinor=0   DbMajor=0   DbMinor=0   DsMajor=0   DsMinor=0   Rd=0   Ro=0   MaxAggSize=0
   Frame=720962   DesignSect="Program Determined"   FrameType="Program Determined"   RLLF=0   XLMajor=0   XLMinor=0   XKMajor=0   XKMinor=0   CmMajor=0   CmMinor=0   DbMajor=0   DbMinor=0   DsMajor=0   DsMinor=0   Rd=0   Ro=0   MaxAggSize=0
   Frame=720963   DesignSect="Program Determined"   FrameType="Program Determined"   RLLF=0   XLMajor=0   XLMinor=0   XKMajor=0   XKMinor=0   CmMajor=0   CmMinor=0   DbMajor=0   DbMinor=0   DsMajor=0   DsMinor=0   Rd=0   Ro=0   MaxAggSize=0
   Frame=720964   DesignSect="Program Determined"   FrameType="Program Determined"   RLLF=0   XLMajor=0   XLMinor=0   XKMajor=0   XKMinor=0   CmMajor=0   CmMinor=0   DbMajor=0   DbMinor=0   DsMajor=0   DsMinor=0   Rd=0   Ro=0   MaxAggSize=0
   Frame=720965   DesignSect="Program Determined"   FrameType="Program Determined"   RLLF=0   XLMajor=0   XLMinor=0   XKMajor=0   XKMinor=0   CmMajor=0   CmMinor=0   DbMajor=0   DbMinor=0   DsMajor=0   DsMinor=0   Rd=0   Ro=0   MaxAggSize=0
# ... 60 like lines cut
 
TABLE:  "PREFERENCES - ALUMINUM DESIGN - AA 2015"
   THDesign=Envelopes   SRatioLimit=1   Provision=ASD   LatFact=1.33333333333333   UseLatFact=No   Bridge=No   OmegaTy=1.65   OmegaTr=1.95   OmegaC=1.65   OmegaBo=1.65   OmegaBr=1.95   OmegaVo=1.65   OmegaVr=1.95
 
TABLE:  "PREFERENCES - COLD FORMED DESIGN - AISI-ASD96"
   THDesign=Envelopes   FrameType="Braced Frame"   SRatioLimit=1   MaxIter=1   OmegaBS=1.67   OmegaBUS=1.67   OmegaBLTB=1.67   OmegaVS=1.67   OmegaVNS=1.5   OmegaT=1.67   OmegaC=1.8
 
TABLE:  "PREFERENCES - CONCRETE DESIGN - CSA-A233-14"
   THDesign=Envelopes   NumCurves=24   NumPoints=11   MinEccen=Yes   BCCDesign=Yes   CTorsion=Yes   PatLLF=0.75   UFLimit=0.95   PhiS=0.85   PhiC=0.65
 
TABLE:  "PREFERENCES - CONCRETE SHELL DESIGN - EUROCODE 2-2004"
   Country="CEN Default"   GammaS=1.15   GammaC=1.5   AlphaCC=1
 
TABLE:  "PREFERENCES - DIMENSIONAL"
   MergeTol=0.001   FineGrid=0.25   Nudge=0.25   SelectTol=3   SnapTol=12   SLineThick=1   PLineThick=4   MaxFont=8   MinFont=3   AutoZoom=10   ShrinkFact=70   TextFileLen=240
 
TABLE:  "PREFERENCES - STEEL DESIGN - AISC 360-10"
   THDesign=Envelopes   FrameType=SMF   PatLLF=0.75   SRatioLimit=0.95   MaxIter=1   SDC=D   SeisCode=No   SeisLoad=No   ImpFactor=1   SystemRho=1   SystemSds=0.5   SystemR=8   SystemCd=5.5   Omega0=3   Provision=LRFD _
        AMethod="Direct Analysis"   SOMethod="General 2nd Order"   SRMethod="Tau-b Fixed"   NLCoeff=0.002   PhiB=0.9   PhiC=0.9   PhiTY=0.9   PhiTF=0.75   PhiV=0.9   PhiVRolledI=1   PhiVT=0.9   PlugWeld=Yes   HSSWelding=ERW   HSSReduceT=No _
        CheckDefl=No   DLRat=120   SDLAndLLRat=120   LLRat=360   TotalRat=240   NetRat=240
 
TABLE:  "PROGRAM CONTROL"
   ProgramName=SAP2000   Version=24.0.0   CurrUnits="Tonf, m, C"   SteelCode="AISC 360-10"   ConcCode="CSA A23.3-14"   AlumCode="AA 2015"   ColdCode=AISI-ASD96   RegenHinge=Yes
 
TABLE:  "PROJECT INFORMATION"
   Item="Company Name"   Data=po
   Item="Client Name"
   Item="Project Name"
   Item="Project Number"
   Item="Model Name"
   Item="Model Description"
   Item="Revision Number"
   Item="Frame Type"
   Item=Engineer
   Item=Checker
   Item=Supervisor
   Item="Issue Code"
   Item="Design Code"
 
TABLE:  "REBAR SIZES"
   RebarID=#2   Area=3.2258E-05   Diameter=0.00635
   RebarID=#3   Area=7.09675996154547E-05   Diameter=0.009525
   RebarID=#4   Area=0.000129032001922727   Diameter=0.0127
   RebarID=#5   Area=0.000199999601538181   Diameter=0.015875
   RebarID=#6   Area=0.000283870398461819   Diameter=0.01905
   RebarID=#7   Area=0.000387096015381813   Diameter=0.022225
   RebarID=#8   Area=0.000509676413843632   Diameter=0.0254
   RebarID=#9   Area=0.00064516   Diameter=0.0286512005329132
   RebarID=#10   Area=0.00081935318769455   Diameter=0.0322579995155334
   RebarID=#11   Area=0.00100644956308365   Diameter=0.0358139991521835
   RebarID=#14   Area=0.00145161   Diameter=0.0430021989583969
   RebarID=#18   Area=0.00258064   Diameter=0.0573277992248535
   RebarID=10M   Area=0.000100000004162606   Diameter=0.0113000003604438
   RebarID=15M   Area=0.000200000008325212   Diameter=0.0160000002402959
   RebarID=20M   Area=0.000300000012487818   Diameter=0.0195000002928606
   RebarID=25M   Area=0.000500000020813031   Diameter=0.0252000011414055
   RebarID=30M   Area=0.000700000029138243   Diameter=0.0299000000675832
   RebarID=35M   Area=0.00100000004162606   Diameter=0.0357000012990997
   RebarID=45M   Area=0.00150000006243909   Diameter=0.0437000014192476
   RebarID=55M   Area=0.00250000010406515   Diameter=0.056400002372922
   RebarID=6d   Area=2.83000004150781E-05   Diameter=0.00600000009011096
   RebarID=8d   Area=5.03000013308514E-05   Diameter=0.00800000012014795
   RebarID=10d   Area=7.85000032676458E-05   Diameter=0.0100000001501849
   RebarID=12d   Area=0.000113000004703745   Diameter=0.0120000001802219
   RebarID=14d   Area=0.000154000006410413   Diameter=0.0140000002102589
   RebarID=16d   Area=0.000201000008366838   Diameter=0.0160000002402959
   RebarID=20d   Area=0.000314000013070583   Diameter=0.0200000003003699
   RebarID=25d   Area=0.000491000020438396   Diameter=0.0250000003754623
   RebarID=26d   Area=0.000531000022103439   Diameter=0.0260000003904808
   RebarID=28d   Area=0.000616000025641654   Diameter=0.0280000004205178
   RebarID=N12   Area=0.000113000004703745   Diameter=0.0120000001802219
   RebarID=N16   Area=0.000201000008366838   Diameter=0.0160000002402959
   RebarID=N20   Area=0.000314000013070583   Diameter=0.0200000003003699
   RebarID=N24   Area=0.00045200001881498   Diameter=0.0240000003604438
   RebarID=N28   Area=0.000616000025641654   Diameter=0.0280000004205178
   RebarID=N32   Area=0.000804000033467353   Diameter=0.0320000004805918
   RebarID=N36   Area=0.00102000004245858   Diameter=0.0360000005406658
 
TABLE:  "SOLID PROPERTY DEFINITIONS"
   SolidProp=Solid1   Material=BTCT   MatAngleA=0   MatAngleB=0   MatAngleC=0   InComp=Yes   Color=Gray8Dark
 
END TABLE DATA
