File D:\ResearchLab\02_Projects\02_Projects\Tap chi XD_SFOA\code\SOO_MPJ\MPJ_Sap\SOO_Cost_W06\MPJ_6.$2k was saved on m/d/yy at h:mm:ss
 
TABLE:  "ACTIVE DEGREES OF FREEDOM"
   UX=Yes   UY=Yes   UZ=Yes   RX=Yes   RY=Yes   RZ=Yes
 
TABLE:  "ANALYSIS OPTIONS"
   Solver=Advanced   SolverProc=Auto   Force32Bit=No   StiffCase=None   GeomMod=None   HingeOpt="In Elements"   NumAThreads=0   MaxFileSize=0   NumDThreads=0   NumRThreads=0   UseMMFiles="Program Determined"   AllowDiff=No
 
TABLE:  "AREA AUTO MESH ASSIGNMENTS"
   Area=242809   MeshType="Number of Elements"   MeshGroup=ALL   Number1=3   Number2=3   LocalEdge=No   LocalFace=No   SuppEdge=No   SuppFace=No   SubMesh=No
   Area=242810   MeshType="Number of Elements"   MeshGroup=ALL   Number1=3   Number2=3   LocalEdge=No   LocalFace=No   SuppEdge=No   SuppFace=No   SubMesh=No
   Area=242811   MeshType="Number of Elements"   MeshGroup=ALL   Number1=3   Number2=3   LocalEdge=No   LocalFace=No   SuppEdge=No   SuppFace=No   SubMesh=No
   Area=242812   MeshType="Number of Elements"   MeshGroup=ALL   Number1=3   Number2=3   LocalEdge=No   LocalFace=No   SuppEdge=No   SuppFace=No   SubMesh=No
   Area=242813   MeshType="Number of Elements"   MeshGroup=ALL   Number1=3   Number2=3   LocalEdge=No   LocalFace=No   SuppEdge=No   SuppFace=No   SubMesh=No
   Area=242814   MeshType="Number of Elements"   MeshGroup=ALL   Number1=3   Number2=3   LocalEdge=No   LocalFace=No   SuppEdge=No   SuppFace=No   SubMesh=No
   Area=242815   MeshType="Number of Elements"   MeshGroup=ALL   Number1=3   Number2=3   LocalEdge=No   LocalFace=No   SuppEdge=No   SuppFace=No   SubMesh=No
   Area=242816   MeshType="Number of Elements"   MeshGroup=ALL   Number1=3   Number2=3   LocalEdge=No   LocalFace=No   SuppEdge=No   SuppFace=No   SubMesh=No
   Area=242817   MeshType="Number of Elements"   MeshGroup=ALL   Number1=3   Number2=3   LocalEdge=No   LocalFace=No   SuppEdge=No   SuppFace=No   SubMesh=No
   Area=242818   MeshType="Number of Elements"   MeshGroup=ALL   Number1=3   Number2=3   LocalEdge=No   LocalFace=No   SuppEdge=No   SuppFace=No   SubMesh=No
   Area=242819   MeshType="Number of Elements"   MeshGroup=ALL   Number1=3   Number2=3   LocalEdge=No   LocalFace=No   SuppEdge=No   SuppFace=No   SubMesh=No
   Area=242820   MeshType="Number of Elements"   MeshGroup=ALL   Number1=3   Number2=3   LocalEdge=No   LocalFace=No   SuppEdge=No   SuppFace=No   SubMesh=No
   Area=242821   MeshType="Number of Elements"   MeshGroup=ALL   Number1=3   Number2=3   LocalEdge=No   LocalFace=No   SuppEdge=No   SuppFace=No   SubMesh=No
   Area=242822   MeshType="Number of Elements"   MeshGroup=ALL   Number1=3   Number2=3   LocalEdge=No   LocalFace=No   SuppEdge=No   SuppFace=No   SubMesh=No
   Area=242823   MeshType="Number of Elements"   MeshGroup=ALL   Number1=3   Number2=3   LocalEdge=No   LocalFace=No   SuppEdge=No   SuppFace=No   SubMesh=No
   Area=242824   MeshType="Number of Elements"   MeshGroup=ALL   Number1=3   Number2=3   LocalEdge=No   LocalFace=No   SuppEdge=No   SuppFace=No   SubMesh=No
   Area=242825   MeshType="Number of Elements"   MeshGroup=ALL   Number1=3   Number2=3   LocalEdge=No   LocalFace=No   SuppEdge=No   SuppFace=No   SubMesh=No
   Area=242826   MeshType="Number of Elements"   MeshGroup=ALL   Number1=3   Number2=3   LocalEdge=No   LocalFace=No   SuppEdge=No   SuppFace=No   SubMesh=No
   Area=242827   MeshType="Number of Elements"   MeshGroup=ALL   Number1=3   Number2=3   LocalEdge=No   LocalFace=No   SuppEdge=No   SuppFace=No   SubMesh=No
   Area=242828   MeshType="Number of Elements"   MeshGroup=ALL   Number1=3   Number2=3   LocalEdge=No   LocalFace=No   SuppEdge=No   SuppFace=No   SubMesh=No
# ... 4 like lines cut
 
TABLE:  "AREA LOADS - UNIFORM"
   Area=242809   LoadPat=LL   CoordSys=GLOBAL   Dir=Gravity   UnifLoad=1.00034158457019
   Area=242810   LoadPat=LL   CoordSys=GLOBAL   Dir=Gravity   UnifLoad=1.00034158457019
   Area=242811   LoadPat=LL   CoordSys=GLOBAL   Dir=Gravity   UnifLoad=1.00034158457019
   Area=242812   LoadPat=LL   CoordSys=GLOBAL   Dir=Gravity   UnifLoad=1.00034158457019
   Area=242813   LoadPat=LL   CoordSys=GLOBAL   Dir=Gravity   UnifLoad=1.00034158457019
   Area=242814   LoadPat=LL   CoordSys=GLOBAL   Dir=Gravity   UnifLoad=1.00034158457019
   Area=242815   LoadPat=LL   CoordSys=GLOBAL   Dir=Gravity   UnifLoad=1.00034158457019
   Area=242816   LoadPat=LL   CoordSys=GLOBAL   Dir=Gravity   UnifLoad=1.00034158457019
   Area=242817   LoadPat=LL   CoordSys=GLOBAL   Dir=Gravity   UnifLoad=1.00034158457019
   Area=242818   LoadPat=LL   CoordSys=GLOBAL   Dir=Gravity   UnifLoad=1.00034158457019
   Area=242819   LoadPat=LL   CoordSys=GLOBAL   Dir=Gravity   UnifLoad=1.00034158457019
   Area=242820   LoadPat=LL   CoordSys=GLOBAL   Dir=Gravity   UnifLoad=1.00034158457019
   Area=242821   LoadPat=LL   CoordSys=GLOBAL   Dir=Gravity   UnifLoad=1.00034158457019
   Area=242822   LoadPat=LL   CoordSys=GLOBAL   Dir=Gravity   UnifLoad=1.00034158457019
   Area=242823   LoadPat=LL   CoordSys=GLOBAL   Dir=Gravity   UnifLoad=1.00034158457019
   Area=242824   LoadPat=LL   CoordSys=GLOBAL   Dir=Gravity   UnifLoad=1.00034158457019
   Area=242825   LoadPat=LL   CoordSys=GLOBAL   Dir=Gravity   UnifLoad=1.00034158457019
   Area=242826   LoadPat=LL   CoordSys=GLOBAL   Dir=Gravity   UnifLoad=1.00034158457019
   Area=242827   LoadPat=LL   CoordSys=GLOBAL   Dir=Gravity   UnifLoad=1.00034158457019
   Area=242828   LoadPat=LL   CoordSys=GLOBAL   Dir=Gravity   UnifLoad=1.00034158457019
# ... 4 like lines cut
 
TABLE:  "AREA SECTION ASSIGNMENTS"
   Area=242809   Section=Deck   MatProp=Default
   Area=242810   Section=Deck   MatProp=Default
   Area=242811   Section=Deck   MatProp=Default
   Area=242812   Section=Deck   MatProp=Default
   Area=242813   Section=Deck   MatProp=Default
   Area=242814   Section=Deck   MatProp=Default
   Area=242815   Section=Deck   MatProp=Default
   Area=242816   Section=Deck   MatProp=Default
   Area=242817   Section=Deck   MatProp=Default
   Area=242818   Section=Deck   MatProp=Default
   Area=242819   Section=Deck   MatProp=Default
   Area=242820   Section=Deck   MatProp=Default
   Area=242821   Section=Deck   MatProp=Default
   Area=242822   Section=Deck   MatProp=Default
   Area=242823   Section=Deck   MatProp=Default
   Area=242824   Section=Deck   MatProp=Default
   Area=242825   Section=Deck   MatProp=Default
   Area=242826   Section=Deck   MatProp=Default
   Area=242827   Section=Deck   MatProp=Default
   Area=242828   Section=Deck   MatProp=Default
# ... 4 like lines cut
 
TABLE:  "AREA SECTION PROPERTIES"
   Section=Deck   Material=BTCT   MatAngle=0   AreaType=Shell   Type=Shell-Thin   DrillDOF=Yes   Thickness=0.3   BendThick=0.3   Color=Green   F11Mod=1   F22Mod=1   F12Mod=1   M11Mod=1   M22Mod=1   M12Mod=1   V13Mod=1   V23Mod=1   MMod=1 _
        WMod=1   Notes="Added 24-Feb-23 16:56:47"
 
TABLE:  "AREA SECTION PROPERTY DESIGN PARAMETERS"
   Section=Deck   RebarMat=None   RebarOpt=Default
 
TABLE:  "AREA SECTION PROPERTY - TIME DEPENDENT"
   Section=Deck   TypeSize=User   AutoSFSize=1   UserValSize=0.1
 
TABLE:  "AUTO COMBINATION OPTION DATA 01 - GENERAL"
   DesignType=Concrete   AutoGen=Yes
 
TABLE:  "AUTO COMBINATION OPTION DATA 02 - USER DATA"
   DesignType=Concrete   LSType=Strength   LCName=DEAD
   DesignType=Concrete   LSType=Strength   LCName=LL
 
TABLE:  "AUTO WAVE 3 - WAVE CHARACTERISTICS - GENERAL"
   WaveChar=Default   WaveType="From Theory"   KinFactor=1   SWaterDepth=45   WaveHeight=18   WavePeriod=12   WaveTheory=Linear
 
TABLE:  "CASE - MODAL 1 - GENERAL"
   Case=MODAL   ModeType=Eigen   MaxNumModes=12   MinNumModes=1   EigenShift=0   EigenCutoff=0   EigenTol=1E-09   AutoShift=Yes
 
TABLE:  "CASE - STATIC 1 - LOAD ASSIGNMENTS"
   Case=DEAD   LoadType="Load pattern"   LoadName=DEAD   LoadSF=1
   Case=LL   LoadType="Load pattern"   LoadName=LL   LoadSF=1
 
TABLE:  "COMBINATION DEFINITIONS"
   ComboName=COMB1   ComboType="Linear Add"   AutoDesign=No   CaseName=DEAD   ScaleFactor=1   SteelDesign=None   ConcDesign=Strength   AlumDesign=None   ColdDesign=None
   ComboName=COMB2   ComboType="Linear Add"   AutoDesign=No   CaseName=DEAD   ScaleFactor=1   SteelDesign=None   ConcDesign=Strength   AlumDesign=None   ColdDesign=None
   ComboName=COMB2   CaseName=LL   ScaleFactor=1
   ComboName=BAO   ComboType=Envelope   AutoDesign=No   CaseName=COMB1   ScaleFactor=1   SteelDesign=None   ConcDesign=Strength   AlumDesign=None   ColdDesign=None
   ComboName=BAO   CaseName=COMB2   ScaleFactor=1
   ComboName=DCON1   ComboType="Linear Add"   AutoDesign=Yes   CaseName=DEAD   ScaleFactor=1.4   SteelDesign=None   ConcDesign=Strength   AlumDesign=None   ColdDesign=None   GUID=bb4fff9a-98b5-44d1-9fde-34d92700a8e9   Notes="Dead Only; Strength"
   ComboName=DCON2   ComboType="Linear Add"   AutoDesign=Yes   CaseName=DEAD   ScaleFactor=1.25   SteelDesign=None   ConcDesign=Strength   AlumDesign=None   ColdDesign=None   GUID=505bcda7-6fac-4dd0-b03e-c591d1ffc6ce   Notes="Dead + Live; Strength"
   ComboName=DCON2   CaseName=LL   ScaleFactor=1.5
 
TABLE:  "CONNECTIVITY - AREA"
   Area=242809   Joint1=711193   Joint2=711154   Joint3=711127   Joint4=711126   GUID=18543b43-c2fe-4c20-9858-5747308e5fe8
   Area=242810   Joint1=711126   Joint2=711127   Joint3=711129   Joint4=711128   GUID=20a288b0-f11b-4c59-a6e3-9ec0eb4bd903
   Area=242811   Joint1=711128   Joint2=711129   Joint3=711131   Joint4=711130   GUID=d4d8efeb-ec4f-4135-ad7d-94be35c1a540
   Area=242812   Joint1=711130   Joint2=711131   Joint3=711133   Joint4=711132   GUID=c1606b63-6114-4119-bcd4-8633577aac11
   Area=242813   Joint1=711132   Joint2=711133   Joint3=711135   Joint4=711134   GUID=f6e8cfc3-ffa7-4ce3-a4f0-92948fe19662
   Area=242814   Joint1=711134   Joint2=711135   Joint3=711137   Joint4=711136   GUID=0ffa5064-e45e-4353-b960-49df5d59ec61
   Area=242815   Joint1=711136   Joint2=711137   Joint3=711139   Joint4=711138   GUID=e57f7904-b026-4244-b188-3e02ea4281a5
   Area=242816   Joint1=711138   Joint2=711139   Joint3=711156   Joint4=711194   GUID=024af98b-0a11-4fba-89f4-af27e4d8302f
   Area=242817   Joint1=711154   Joint2=711155   Joint3=711140   Joint4=711127   GUID=c6b781f3-f31d-4afd-a827-bcf3527da1b6
   Area=242818   Joint1=711127   Joint2=711140   Joint3=711141   Joint4=711129   GUID=5e83172f-67f3-4355-80ad-a83a055d49c3
   Area=242819   Joint1=711129   Joint2=711141   Joint3=711142   Joint4=711131   GUID=2224fe1a-732e-4a57-8d8c-7e8391bd9a63
   Area=242820   Joint1=711131   Joint2=711142   Joint3=711143   Joint4=711133   GUID=d9a71c02-fcec-4d1c-a197-b7011137fdbb
   Area=242821   Joint1=711133   Joint2=711143   Joint3=711144   Joint4=711135   GUID=db5d3d82-d9b5-4a6c-ad32-7e135a5ef643
   Area=242822   Joint1=711135   Joint2=711144   Joint3=711145   Joint4=711137   GUID=cfe66c6e-f573-4107-883a-13862be60bf9
   Area=242823   Joint1=711137   Joint2=711145   Joint3=711146   Joint4=711139   GUID=79720c51-af82-4287-85c5-5085c000cea6
   Area=242824   Joint1=711139   Joint2=711146   Joint3=711157   Joint4=711156   GUID=66f26050-3105-4207-9b77-ce6eed32c305
   Area=242825   Joint1=711155   Joint2=711195   Joint3=711147   Joint4=711140   GUID=d54daf0c-32db-4fc3-b930-322f9972cc1c
   Area=242826   Joint1=711140   Joint2=711147   Joint3=711148   Joint4=711141   GUID=c2d7d6a3-79ed-4f2d-8581-e31008868c3b
   Area=242827   Joint1=711141   Joint2=711148   Joint3=711149   Joint4=711142   GUID=2e1158ab-dc4d-47a7-9f02-edd3d9b8f3fb
   Area=242828   Joint1=711142   Joint2=711149   Joint3=711150   Joint4=711143   GUID=05998b83-52ab-4904-a385-7cdef2b2c5e9
   Area=242829   Joint1=711143   Joint2=711150   Joint3=711151   Joint4=711144   GUID=e60b136f-0796-4d95-90c4-0b13984ea041
   Area=242830   Joint1=711144   Joint2=711151   Joint3=711152   Joint4=711145   GUID=1d0ee13c-4938-4b3f-8b78-dfc787ac94df
   Area=242831   Joint1=711145   Joint2=711152   Joint3=711153   Joint4=711146   GUID=5ef69a18-575d-4de7-aeac-d6c76e1efa8b
   Area=242832   Joint1=711146   Joint2=711153   Joint3=711196   Joint4=711157   GUID=1651b0db-756e-4bd3-994b-35883a93789e
 
TABLE:  "CONNECTIVITY - FRAME"
   Frame=797933   JointI=711126   JointJ=711127   IsCurved=No   GUID=6e4f4e77-7ea6-44d0-bcb9-ccca5a96bd40
   Frame=797934   JointI=711128   JointJ=711129   IsCurved=No   GUID=05261eef-7c19-4736-840e-4a5075c2d4ca
   Frame=797935   JointI=711130   JointJ=711131   IsCurved=No   GUID=aae9f2c6-af29-4898-8663-59e375d51627
   Frame=797936   JointI=711132   JointJ=711133   IsCurved=No   GUID=da6ebbe0-a5ec-42d0-8241-0ebef4d71780
   Frame=797937   JointI=711134   JointJ=711135   IsCurved=No   GUID=4bb94ce2-4c3d-477a-b474-7b5c29208a98
   Frame=797938   JointI=711136   JointJ=711137   IsCurved=No   GUID=30baff95-d5c9-4d39-8aba-d17ccb420e43
   Frame=797939   JointI=711138   JointJ=711139   IsCurved=No   GUID=390637e4-c7f4-447f-9ae4-dce122a8743c
   Frame=797940   JointI=711127   JointJ=711140   IsCurved=No   GUID=6dbc74c0-9ee5-4510-91eb-39b9c2310d0e
   Frame=797941   JointI=711129   JointJ=711141   IsCurved=No   GUID=d7a60333-c58f-4928-97f2-0a3a870181f4
   Frame=797942   JointI=711131   JointJ=711142   IsCurved=No   GUID=77284398-4427-40df-8f03-a89571930a46
   Frame=797943   JointI=711133   JointJ=711143   IsCurved=No   GUID=bbae39a4-37de-43f5-9f29-a7bc6b939d88
   Frame=797944   JointI=711135   JointJ=711144   IsCurved=No   GUID=89e7c692-5a6d-425c-808c-d96f409824d9
   Frame=797945   JointI=711137   JointJ=711145   IsCurved=No   GUID=1d3b3482-dd0e-4e25-a851-652e86b7d3a9
   Frame=797946   JointI=711139   JointJ=711146   IsCurved=No   GUID=e056bda0-b704-4414-ac47-08d21c424f9c
   Frame=797947   JointI=711140   JointJ=711147   IsCurved=No   GUID=04f9e762-5962-42fc-ad99-ed6a5a1a278b
   Frame=797948   JointI=711141   JointJ=711148   IsCurved=No   GUID=18255ac9-0ceb-49d9-8616-880f8e062c5c
   Frame=797949   JointI=711142   JointJ=711149   IsCurved=No   GUID=90b8712f-f158-4980-bd79-1c3b297ba38d
   Frame=797950   JointI=711143   JointJ=711150   IsCurved=No   GUID=96f7c831-b9e5-4aed-b17b-60b36e5804f6
   Frame=797951   JointI=711144   JointJ=711151   IsCurved=No   GUID=4ad99e69-6668-4a65-b48b-9b84836f15b2
   Frame=797952   JointI=711145   JointJ=711152   IsCurved=No   GUID=824dd3e9-bb47-425e-80c0-bbbdeda34a17
   Frame=797953   JointI=711146   JointJ=711153   IsCurved=No   GUID=e44a686e-9c9c-49a4-b296-7f7de23c8392
   Frame=797954   JointI=711154   JointJ=711127   IsCurved=No   GUID=fc7912af-ae61-4bb8-9dbe-2fc18df37658
   Frame=797955   JointI=711155   JointJ=711140   IsCurved=No   GUID=f04499f9-d33a-4705-aab3-c722f43b2488
   Frame=797956   JointI=711127   JointJ=711129   IsCurved=No   GUID=2d5c29cd-8e10-48e2-8c28-ef42f16fdc12
   Frame=797957   JointI=711140   JointJ=711141   IsCurved=No   GUID=410fe3cf-d770-4762-b6eb-b38c1e896786
   Frame=797958   JointI=711129   JointJ=711131   IsCurved=No   GUID=23cc98e9-2f2d-48c6-bbac-561a692121d9
   Frame=797959   JointI=711141   JointJ=711142   IsCurved=No   GUID=c59d1254-eeec-4b6d-8f61-e7c772bc962e
   Frame=797960   JointI=711131   JointJ=711133   IsCurved=No   GUID=f1879720-6e44-47fe-b8d7-5236128d4fdd
   Frame=797961   JointI=711142   JointJ=711143   IsCurved=No   GUID=d2c61307-b3ee-478d-9967-055ceeb745da
   Frame=797962   JointI=711133   JointJ=711135   IsCurved=No   GUID=da69939b-9f27-41f4-9a2a-360b3d24be3f
   Frame=797963   JointI=711143   JointJ=711144   IsCurved=No   GUID=521c9ba3-fe4d-43ff-bc0d-c7ef867530d8
   Frame=797964   JointI=711135   JointJ=711137   IsCurved=No   GUID=3ae61688-5054-426f-a36c-51205ddf6692
   Frame=797965   JointI=711144   JointJ=711145   IsCurved=No   GUID=578a6ea0-716b-46dd-8d70-446a866c424a
   Frame=797966   JointI=711137   JointJ=711139   IsCurved=No   GUID=62c68a54-2875-4584-b0d9-50101f7aa5c6
   Frame=797967   JointI=711145   JointJ=711146   IsCurved=No   GUID=d99eb82d-56ea-4c95-bbf9-3f494072d0d2
   Frame=797968   JointI=711139   JointJ=711156   IsCurved=No   GUID=ad07e8b2-8797-467f-8538-7bd3ac9a49dc
   Frame=797969   JointI=711146   JointJ=711157   IsCurved=No   GUID=1cc92294-6e85-41af-8f26-3640f02d3112
   Frame=797970   JointI=711127   JointJ=711158   IsCurved=No   GUID=a0704b1e-29ec-4edb-8aa0-067095de8894
   Frame=797971   JointI=711158   JointJ=711159   IsCurved=No   GUID=15b4a859-266e-4edc-b113-348baea7d3f1
   Frame=797972   JointI=711159   JointJ=711160   IsCurved=No   GUID=cf03608c-684a-4df3-a412-f7041661b174
   Frame=797973   JointI=711129   JointJ=711161   IsCurved=No   GUID=5de03ee2-4f6b-4769-988d-337371db5c61
   Frame=797974   JointI=711161   JointJ=711162   IsCurved=No   GUID=191d60cb-4d2a-4cad-af4f-008c11896a51
   Frame=797975   JointI=711162   JointJ=711163   IsCurved=No   GUID=7a3b7da0-0f50-4ebc-aa78-4d7cf3d61e39
   Frame=797976   JointI=711131   JointJ=711164   IsCurved=No   GUID=b69199aa-8039-43eb-bbea-270ff784dcd7
   Frame=797977   JointI=711164   JointJ=711165   IsCurved=No   GUID=10ee04c3-3d2f-427a-b4ad-57431041ba69
   Frame=797978   JointI=711165   JointJ=711166   IsCurved=No   GUID=dbe7b246-68e1-4cb9-9e33-ed34e7cffacd
   Frame=797979   JointI=711133   JointJ=711167   IsCurved=No   GUID=ab1cc495-bc97-447e-ad5c-4d2319661431
   Frame=797980   JointI=711167   JointJ=711168   IsCurved=No   GUID=863f14ba-763c-4e1d-8c17-b33c570daf15
   Frame=797981   JointI=711168   JointJ=711169   IsCurved=No   GUID=0c9fdb43-36fd-4645-aacd-caadc705aee9
   Frame=797982   JointI=711135   JointJ=711170   IsCurved=No   GUID=66b808f7-739f-4712-97fa-38bfdd636fc4
   Frame=797983   JointI=711170   JointJ=711171   IsCurved=No   GUID=8b70ff56-7b97-4779-935e-3f820d6b1a9a
   Frame=797984   JointI=711171   JointJ=711172   IsCurved=No   GUID=440a3dc7-ec13-4153-8763-1ebf18ab2f1a
   Frame=797985   JointI=711137   JointJ=711173   IsCurved=No   GUID=74d8b2f6-115d-4b4d-ba4e-115a22a6946b
   Frame=797986   JointI=711173   JointJ=711174   IsCurved=No   GUID=16416ddf-b6ce-4892-8ff9-62941d88caf8
   Frame=797987   JointI=711174   JointJ=711175   IsCurved=No   GUID=6668eda5-aa87-4699-92a0-8bec77882289
   Frame=797988   JointI=711139   JointJ=711176   IsCurved=No   GUID=a2a6a692-2b0c-4f20-92b1-aa4c7bab16fb
   Frame=797989   JointI=711176   JointJ=711177   IsCurved=No   GUID=faf8ce84-2897-4fa0-890e-2816875548f5
   Frame=797990   JointI=711177   JointJ=711178   IsCurved=No   GUID=b207337e-3e8d-467d-8952-3e694055676d
   Frame=797991   JointI=711140   JointJ=711179   IsCurved=No   GUID=7203f1d9-90fa-4632-94dc-dcfe3c068490
   Frame=797992   JointI=711179   JointJ=711180   IsCurved=No   GUID=f043f1f5-ad37-4181-84c6-ba8c60079d79
   Frame=797993   JointI=711141   JointJ=711181   IsCurved=No   GUID=a36303cd-6ef5-4a39-be4b-70e26720db4a
   Frame=797994   JointI=711181   JointJ=711182   IsCurved=No   GUID=786a3de2-6c98-4ed4-b43e-1a14fd94367f
   Frame=797995   JointI=711142   JointJ=711183   IsCurved=No   GUID=7e671fa6-81b9-4433-95e0-055eac52da72
   Frame=797996   JointI=711183   JointJ=711184   IsCurved=No   GUID=60e2f2d3-00be-47cf-993a-3218fb83fdfb
   Frame=797997   JointI=711143   JointJ=711185   IsCurved=No   GUID=bc3875af-c5f7-4b25-993c-940fe9890083
   Frame=797998   JointI=711185   JointJ=711186   IsCurved=No   GUID=b803a66f-82ca-46ef-8b34-59e83b6b001c
   Frame=797999   JointI=711144   JointJ=711187   IsCurved=No   GUID=4e6ac73d-571f-498d-9397-34bbf92eefc1
   Frame=798000   JointI=711187   JointJ=711188   IsCurved=No   GUID=5c7ddcaf-f9ae-4abb-a154-fcf0398eaeb1
   Frame=798001   JointI=711145   JointJ=711189   IsCurved=No   GUID=dfc60b10-2920-4a5d-bb4b-b152c1ba40ad
   Frame=798002   JointI=711189   JointJ=711190   IsCurved=No   GUID=cf1a9986-7f87-4488-a1f6-e93a99313394
   Frame=798003   JointI=711146   JointJ=711191   IsCurved=No   GUID=107938d9-8ba6-4634-8653-14c9a7c883be
   Frame=798004   JointI=711191   JointJ=711192   IsCurved=No   GUID=6daf637c-4e8e-4acd-a55d-5a5feae74d7b
   Frame=798005   JointI=711158   JointJ=711161   IsCurved=No   GUID=0e5562aa-94fc-4fba-8d5a-7c8e779e95c7
   Frame=798006   JointI=711161   JointJ=711164   IsCurved=No   GUID=213057b9-4c33-42af-98d5-f1ca65403b60
   Frame=798007   JointI=711164   JointJ=711167   IsCurved=No   GUID=59d6907f-88b6-4d02-83a4-989b77cbc712
   Frame=798008   JointI=711167   JointJ=711170   IsCurved=No   GUID=827d1310-20d7-4b12-8c38-eedace8ff09b
   Frame=798009   JointI=711170   JointJ=711173   IsCurved=No   GUID=cbf5444a-da8e-44c4-b45a-9c6dc2f64087
   Frame=798010   JointI=711173   JointJ=711176   IsCurved=No   GUID=f9e4f396-217e-4e30-b00d-000e89a33e5f
 
TABLE:  "COORDINATE SYSTEMS"
   Name=GLOBAL   Type=Cartesian   X=0   Y=0   Z=0   AboutZ=0   AboutY=0   AboutX=0
 
TABLE:  "DATABASE DOCUMENTATION"
 
TABLE:  "DATABASE FORMAT TYPES"
   UnitsCurr=Yes   OverrideE=No
 
TABLE:  "FRAME AUTO MESH ASSIGNMENTS"
   Frame=797933   AutoMesh=Yes   AtJoints=Yes   AtFrames=No   NumSegments=0   MaxLength=0   MaxDegrees=0
   Frame=797934   AutoMesh=Yes   AtJoints=Yes   AtFrames=No   NumSegments=0   MaxLength=0   MaxDegrees=0
   Frame=797935   AutoMesh=Yes   AtJoints=Yes   AtFrames=No   NumSegments=0   MaxLength=0   MaxDegrees=0
   Frame=797936   AutoMesh=Yes   AtJoints=Yes   AtFrames=No   NumSegments=0   MaxLength=0   MaxDegrees=0
   Frame=797937   AutoMesh=Yes   AtJoints=Yes   AtFrames=No   NumSegments=0   MaxLength=0   MaxDegrees=0
   Frame=797938   AutoMesh=Yes   AtJoints=Yes   AtFrames=No   NumSegments=0   MaxLength=0   MaxDegrees=0
   Frame=797939   AutoMesh=Yes   AtJoints=Yes   AtFrames=No   NumSegments=0   MaxLength=0   MaxDegrees=0
   Frame=797940   AutoMesh=Yes   AtJoints=Yes   AtFrames=No   NumSegments=0   MaxLength=0   MaxDegrees=0
   Frame=797941   AutoMesh=Yes   AtJoints=Yes   AtFrames=No   NumSegments=0   MaxLength=0   MaxDegrees=0
   Frame=797942   AutoMesh=Yes   AtJoints=Yes   AtFrames=No   NumSegments=0   MaxLength=0   MaxDegrees=0
   Frame=797943   AutoMesh=Yes   AtJoints=Yes   AtFrames=No   NumSegments=0   MaxLength=0   MaxDegrees=0
   Frame=797944   AutoMesh=Yes   AtJoints=Yes   AtFrames=No   NumSegments=0   MaxLength=0   MaxDegrees=0
   Frame=797945   AutoMesh=Yes   AtJoints=Yes   AtFrames=No   NumSegments=0   MaxLength=0   MaxDegrees=0
   Frame=797946   AutoMesh=Yes   AtJoints=Yes   AtFrames=No   NumSegments=0   MaxLength=0   MaxDegrees=0
   Frame=797947   AutoMesh=Yes   AtJoints=Yes   AtFrames=No   NumSegments=0   MaxLength=0   MaxDegrees=0
   Frame=797948   AutoMesh=Yes   AtJoints=Yes   AtFrames=No   NumSegments=0   MaxLength=0   MaxDegrees=0
   Frame=797949   AutoMesh=Yes   AtJoints=Yes   AtFrames=No   NumSegments=0   MaxLength=0   MaxDegrees=0
   Frame=797950   AutoMesh=Yes   AtJoints=Yes   AtFrames=No   NumSegments=0   MaxLength=0   MaxDegrees=0
   Frame=797951   AutoMesh=Yes   AtJoints=Yes   AtFrames=No   NumSegments=0   MaxLength=0   MaxDegrees=0
   Frame=797952   AutoMesh=Yes   AtJoints=Yes   AtFrames=No   NumSegments=0   MaxLength=0   MaxDegrees=0
# ... 58 like lines cut
 
TABLE:  "FRAME DESIGN PROCEDURES"
   Frame=797933   DesignProc="From Material"
   Frame=797934   DesignProc="From Material"
   Frame=797935   DesignProc="From Material"
   Frame=797936   DesignProc="From Material"
   Frame=797937   DesignProc="From Material"
   Frame=797938   DesignProc="From Material"
   Frame=797939   DesignProc="From Material"
   Frame=797940   DesignProc="From Material"
   Frame=797941   DesignProc="From Material"
   Frame=797942   DesignProc="From Material"
   Frame=797943   DesignProc="From Material"
   Frame=797944   DesignProc="From Material"
   Frame=797945   DesignProc="From Material"
   Frame=797946   DesignProc="From Material"
   Frame=797947   DesignProc="From Material"
   Frame=797948   DesignProc="From Material"
   Frame=797949   DesignProc="From Material"
   Frame=797950   DesignProc="From Material"
   Frame=797951   DesignProc="From Material"
   Frame=797952   DesignProc="From Material"
# ... 18 like lines cut
   Frame=797971   DesignProc="No Design"
   Frame=797972   DesignProc="No Design"
   Frame=797973   DesignProc="From Material"
   Frame=797974   DesignProc="No Design"
   Frame=797975   DesignProc="No Design"
   Frame=797976   DesignProc="From Material"
   Frame=797977   DesignProc="No Design"
   Frame=797978   DesignProc="No Design"
   Frame=797979   DesignProc="From Material"
   Frame=797980   DesignProc="No Design"
   Frame=797981   DesignProc="No Design"
   Frame=797982   DesignProc="From Material"
   Frame=797983   DesignProc="No Design"
   Frame=797984   DesignProc="No Design"
   Frame=797985   DesignProc="From Material"
   Frame=797986   DesignProc="No Design"
   Frame=797987   DesignProc="No Design"
   Frame=797988   DesignProc="From Material"
   Frame=797989   DesignProc="No Design"
   Frame=797990   DesignProc="No Design"
   Frame=797991   DesignProc="No Design"
   Frame=797992   DesignProc="No Design"
   Frame=797993   DesignProc="No Design"
   Frame=797994   DesignProc="No Design"
   Frame=797995   DesignProc="No Design"
   Frame=797996   DesignProc="No Design"
   Frame=797997   DesignProc="No Design"
   Frame=797998   DesignProc="No Design"
   Frame=797999   DesignProc="No Design"
   Frame=798000   DesignProc="No Design"
   Frame=798001   DesignProc="No Design"
   Frame=798002   DesignProc="No Design"
   Frame=798003   DesignProc="No Design"
   Frame=798004   DesignProc="No Design"
   Frame=798005   DesignProc="From Material"
   Frame=798006   DesignProc="From Material"
   Frame=798007   DesignProc="From Material"
   Frame=798008   DesignProc="From Material"
   Frame=798009   DesignProc="From Material"
   Frame=798010   DesignProc="From Material"
 
TABLE:  "FRAME LOAD TRANSFER OPTIONS"
   Frame=797933   Transfer=Yes
   Frame=797934   Transfer=Yes
   Frame=797935   Transfer=Yes
   Frame=797936   Transfer=Yes
   Frame=797937   Transfer=Yes
   Frame=797938   Transfer=Yes
   Frame=797939   Transfer=Yes
   Frame=797940   Transfer=Yes
   Frame=797941   Transfer=Yes
   Frame=797942   Transfer=Yes
   Frame=797943   Transfer=Yes
   Frame=797944   Transfer=Yes
   Frame=797945   Transfer=Yes
   Frame=797946   Transfer=Yes
   Frame=797947   Transfer=Yes
   Frame=797948   Transfer=Yes
   Frame=797949   Transfer=Yes
   Frame=797950   Transfer=Yes
   Frame=797951   Transfer=Yes
   Frame=797952   Transfer=Yes
# ... 58 like lines cut
 
TABLE:  "FRAME LOCAL AXES ASSIGNMENTS 1 - TYPICAL"
   Frame=797970   Angle=90
   Frame=797973   Angle=90
   Frame=797976   Angle=90
   Frame=797979   Angle=90
   Frame=797982   Angle=90
   Frame=797985   Angle=90
   Frame=797988   Angle=90
 
TABLE:  "FRAME OUTPUT STATION ASSIGNMENTS"
   Frame=797933   StationType=MaxStaSpcg   MaxStaSpcg=0.5   AddAtElmInt=Yes   AddAtPtLoad=Yes
   Frame=797934   StationType=MaxStaSpcg   MaxStaSpcg=0.5   AddAtElmInt=Yes   AddAtPtLoad=Yes
   Frame=797935   StationType=MaxStaSpcg   MaxStaSpcg=0.5   AddAtElmInt=Yes   AddAtPtLoad=Yes
   Frame=797936   StationType=MaxStaSpcg   MaxStaSpcg=0.5   AddAtElmInt=Yes   AddAtPtLoad=Yes
   Frame=797937   StationType=MaxStaSpcg   MaxStaSpcg=0.5   AddAtElmInt=Yes   AddAtPtLoad=Yes
   Frame=797938   StationType=MaxStaSpcg   MaxStaSpcg=0.5   AddAtElmInt=Yes   AddAtPtLoad=Yes
   Frame=797939   StationType=MaxStaSpcg   MaxStaSpcg=0.5   AddAtElmInt=Yes   AddAtPtLoad=Yes
   Frame=797940   StationType=MaxStaSpcg   MaxStaSpcg=0.5   AddAtElmInt=Yes   AddAtPtLoad=Yes
   Frame=797941   StationType=MaxStaSpcg   MaxStaSpcg=0.5   AddAtElmInt=Yes   AddAtPtLoad=Yes
   Frame=797942   StationType=MaxStaSpcg   MaxStaSpcg=0.5   AddAtElmInt=Yes   AddAtPtLoad=Yes
   Frame=797943   StationType=MaxStaSpcg   MaxStaSpcg=0.5   AddAtElmInt=Yes   AddAtPtLoad=Yes
   Frame=797944   StationType=MaxStaSpcg   MaxStaSpcg=0.5   AddAtElmInt=Yes   AddAtPtLoad=Yes
   Frame=797945   StationType=MaxStaSpcg   MaxStaSpcg=0.5   AddAtElmInt=Yes   AddAtPtLoad=Yes
   Frame=797946   StationType=MaxStaSpcg   MaxStaSpcg=0.5   AddAtElmInt=Yes   AddAtPtLoad=Yes
   Frame=797947   StationType=MaxStaSpcg   MaxStaSpcg=0.5   AddAtElmInt=Yes   AddAtPtLoad=Yes
   Frame=797948   StationType=MaxStaSpcg   MaxStaSpcg=0.5   AddAtElmInt=Yes   AddAtPtLoad=Yes
   Frame=797949   StationType=MaxStaSpcg   MaxStaSpcg=0.5   AddAtElmInt=Yes   AddAtPtLoad=Yes
   Frame=797950   StationType=MaxStaSpcg   MaxStaSpcg=0.5   AddAtElmInt=Yes   AddAtPtLoad=Yes
   Frame=797951   StationType=MaxStaSpcg   MaxStaSpcg=0.5   AddAtElmInt=Yes   AddAtPtLoad=Yes
   Frame=797952   StationType=MaxStaSpcg   MaxStaSpcg=0.5   AddAtElmInt=Yes   AddAtPtLoad=Yes
# ... 17 like lines cut
   Frame=797970   StationType=MinNumSta   MinNumSta=3   AddAtElmInt=Yes   AddAtPtLoad=Yes
   Frame=797971   StationType=MinNumSta   MinNumSta=3   AddAtElmInt=Yes   AddAtPtLoad=Yes
   Frame=797972   StationType=MinNumSta   MinNumSta=3   AddAtElmInt=Yes   AddAtPtLoad=Yes
   Frame=797973   StationType=MinNumSta   MinNumSta=3   AddAtElmInt=Yes   AddAtPtLoad=Yes
   Frame=797974   StationType=MinNumSta   MinNumSta=3   AddAtElmInt=Yes   AddAtPtLoad=Yes
   Frame=797975   StationType=MinNumSta   MinNumSta=3   AddAtElmInt=Yes   AddAtPtLoad=Yes
   Frame=797976   StationType=MinNumSta   MinNumSta=3   AddAtElmInt=Yes   AddAtPtLoad=Yes
   Frame=797977   StationType=MinNumSta   MinNumSta=3   AddAtElmInt=Yes   AddAtPtLoad=Yes
   Frame=797978   StationType=MinNumSta   MinNumSta=3   AddAtElmInt=Yes   AddAtPtLoad=Yes
   Frame=797979   StationType=MinNumSta   MinNumSta=3   AddAtElmInt=Yes   AddAtPtLoad=Yes
   Frame=797980   StationType=MinNumSta   MinNumSta=3   AddAtElmInt=Yes   AddAtPtLoad=Yes
   Frame=797981   StationType=MinNumSta   MinNumSta=3   AddAtElmInt=Yes   AddAtPtLoad=Yes
   Frame=797982   StationType=MinNumSta   MinNumSta=3   AddAtElmInt=Yes   AddAtPtLoad=Yes
   Frame=797983   StationType=MinNumSta   MinNumSta=3   AddAtElmInt=Yes   AddAtPtLoad=Yes
   Frame=797984   StationType=MinNumSta   MinNumSta=3   AddAtElmInt=Yes   AddAtPtLoad=Yes
   Frame=797985   StationType=MinNumSta   MinNumSta=3   AddAtElmInt=Yes   AddAtPtLoad=Yes
   Frame=797986   StationType=MinNumSta   MinNumSta=3   AddAtElmInt=Yes   AddAtPtLoad=Yes
   Frame=797987   StationType=MinNumSta   MinNumSta=3   AddAtElmInt=Yes   AddAtPtLoad=Yes
   Frame=797988   StationType=MinNumSta   MinNumSta=3   AddAtElmInt=Yes   AddAtPtLoad=Yes
   Frame=797989   StationType=MinNumSta   MinNumSta=3   AddAtElmInt=Yes   AddAtPtLoad=Yes
# ... 15 like lines cut
   Frame=798005   StationType=MaxStaSpcg   MaxStaSpcg=0.5   AddAtElmInt=Yes   AddAtPtLoad=Yes
   Frame=798006   StationType=MaxStaSpcg   MaxStaSpcg=0.5   AddAtElmInt=Yes   AddAtPtLoad=Yes
   Frame=798007   StationType=MaxStaSpcg   MaxStaSpcg=0.5   AddAtElmInt=Yes   AddAtPtLoad=Yes
   Frame=798008   StationType=MaxStaSpcg   MaxStaSpcg=0.5   AddAtElmInt=Yes   AddAtPtLoad=Yes
   Frame=798009   StationType=MaxStaSpcg   MaxStaSpcg=0.5   AddAtElmInt=Yes   AddAtPtLoad=Yes
   Frame=798010   StationType=MaxStaSpcg   MaxStaSpcg=0.5   AddAtElmInt=Yes   AddAtPtLoad=Yes
 
TABLE:  "FRAME SECTION ASSIGNMENTS"
   Frame=797933   AutoSelect=N.A.   AnalSect=TB   MatProp=Default
   Frame=797934   AutoSelect=N.A.   AnalSect=TB   MatProp=Default
   Frame=797935   AutoSelect=N.A.   AnalSect=TB   MatProp=Default
   Frame=797936   AutoSelect=N.A.   AnalSect=TB   MatProp=Default
   Frame=797937   AutoSelect=N.A.   AnalSect=TB   MatProp=Default
   Frame=797938   AutoSelect=N.A.   AnalSect=TB   MatProp=Default
   Frame=797939   AutoSelect=N.A.   AnalSect=TB   MatProp=Default
   Frame=797940   AutoSelect=N.A.   AnalSect=TB   MatProp=Default
   Frame=797941   AutoSelect=N.A.   AnalSect=TB   MatProp=Default
   Frame=797942   AutoSelect=N.A.   AnalSect=TB   MatProp=Default
   Frame=797943   AutoSelect=N.A.   AnalSect=TB   MatProp=Default
   Frame=797944   AutoSelect=N.A.   AnalSect=TB   MatProp=Default
   Frame=797945   AutoSelect=N.A.   AnalSect=TB   MatProp=Default
   Frame=797946   AutoSelect=N.A.   AnalSect=TB   MatProp=Default
   Frame=797947   AutoSelect=N.A.   AnalSect=TB   MatProp=Default
   Frame=797948   AutoSelect=N.A.   AnalSect=TB   MatProp=Default
   Frame=797949   AutoSelect=N.A.   AnalSect=TB   MatProp=Default
   Frame=797950   AutoSelect=N.A.   AnalSect=TB   MatProp=Default
   Frame=797951   AutoSelect=N.A.   AnalSect=TB   MatProp=Default
   Frame=797952   AutoSelect=N.A.   AnalSect=TB   MatProp=Default
   Frame=797953   AutoSelect=N.A.   AnalSect=TB   MatProp=Default
   Frame=797954   AutoSelect=N.A.   AnalSect=LB   MatProp=Default
   Frame=797955   AutoSelect=N.A.   AnalSect=LB   MatProp=Default
   Frame=797956   AutoSelect=N.A.   AnalSect=LB   MatProp=Default
   Frame=797957   AutoSelect=N.A.   AnalSect=LB   MatProp=Default
   Frame=797958   AutoSelect=N.A.   AnalSect=LB   MatProp=Default
   Frame=797959   AutoSelect=N.A.   AnalSect=LB   MatProp=Default
   Frame=797960   AutoSelect=N.A.   AnalSect=LB   MatProp=Default
   Frame=797961   AutoSelect=N.A.   AnalSect=LB   MatProp=Default
   Frame=797962   AutoSelect=N.A.   AnalSect=LB   MatProp=Default
   Frame=797963   AutoSelect=N.A.   AnalSect=LB   MatProp=Default
   Frame=797964   AutoSelect=N.A.   AnalSect=LB   MatProp=Default
   Frame=797965   AutoSelect=N.A.   AnalSect=LB   MatProp=Default
   Frame=797966   AutoSelect=N.A.   AnalSect=LB   MatProp=Default
   Frame=797967   AutoSelect=N.A.   AnalSect=LB   MatProp=Default
   Frame=797968   AutoSelect=N.A.   AnalSect=LB   MatProp=Default
   Frame=797969   AutoSelect=N.A.   AnalSect=LB   MatProp=Default
   Frame=797970   AutoSelect=N.A.   AnalSect=EB   MatProp=Default
   Frame=797971   AutoSelect=N.A.   AnalSect=Piles   MatProp=Default
   Frame=797972   AutoSelect=N.A.   AnalSect=Piles   MatProp=Default
   Frame=797973   AutoSelect=N.A.   AnalSect=EB   MatProp=Default
   Frame=797974   AutoSelect=N.A.   AnalSect=Piles   MatProp=Default
   Frame=797975   AutoSelect=N.A.   AnalSect=Piles   MatProp=Default
   Frame=797976   AutoSelect=N.A.   AnalSect=EB   MatProp=Default
   Frame=797977   AutoSelect=N.A.   AnalSect=Piles   MatProp=Default
   Frame=797978   AutoSelect=N.A.   AnalSect=Piles   MatProp=Default
   Frame=797979   AutoSelect=N.A.   AnalSect=EB   MatProp=Default
   Frame=797980   AutoSelect=N.A.   AnalSect=Piles   MatProp=Default
   Frame=797981   AutoSelect=N.A.   AnalSect=Piles   MatProp=Default
   Frame=797982   AutoSelect=N.A.   AnalSect=EB   MatProp=Default
   Frame=797983   AutoSelect=N.A.   AnalSect=Piles   MatProp=Default
   Frame=797984   AutoSelect=N.A.   AnalSect=Piles   MatProp=Default
   Frame=797985   AutoSelect=N.A.   AnalSect=EB   MatProp=Default
   Frame=797986   AutoSelect=N.A.   AnalSect=Piles   MatProp=Default
   Frame=797987   AutoSelect=N.A.   AnalSect=Piles   MatProp=Default
   Frame=797988   AutoSelect=N.A.   AnalSect=EB   MatProp=Default
   Frame=797989   AutoSelect=N.A.   AnalSect=Piles   MatProp=Default
   Frame=797990   AutoSelect=N.A.   AnalSect=Piles   MatProp=Default
   Frame=797991   AutoSelect=N.A.   AnalSect=Piles   MatProp=Default
   Frame=797992   AutoSelect=N.A.   AnalSect=Piles   MatProp=Default
   Frame=797993   AutoSelect=N.A.   AnalSect=Piles   MatProp=Default
   Frame=797994   AutoSelect=N.A.   AnalSect=Piles   MatProp=Default
   Frame=797995   AutoSelect=N.A.   AnalSect=Piles   MatProp=Default
   Frame=797996   AutoSelect=N.A.   AnalSect=Piles   MatProp=Default
   Frame=797997   AutoSelect=N.A.   AnalSect=Piles   MatProp=Default
   Frame=797998   AutoSelect=N.A.   AnalSect=Piles   MatProp=Default
   Frame=797999   AutoSelect=N.A.   AnalSect=Piles   MatProp=Default
   Frame=798000   AutoSelect=N.A.   AnalSect=Piles   MatProp=Default
   Frame=798001   AutoSelect=N.A.   AnalSect=Piles   MatProp=Default
   Frame=798002   AutoSelect=N.A.   AnalSect=Piles   MatProp=Default
   Frame=798003   AutoSelect=N.A.   AnalSect=Piles   MatProp=Default
   Frame=798004   AutoSelect=N.A.   AnalSect=Piles   MatProp=Default
   Frame=798005   AutoSelect=N.A.   AnalSect=EB-1   MatProp=Default
   Frame=798006   AutoSelect=N.A.   AnalSect=EB-1   MatProp=Default
   Frame=798007   AutoSelect=N.A.   AnalSect=EB-1   MatProp=Default
   Frame=798008   AutoSelect=N.A.   AnalSect=EB-1   MatProp=Default
   Frame=798009   AutoSelect=N.A.   AnalSect=EB-1   MatProp=Default
   Frame=798010   AutoSelect=N.A.   AnalSect=EB-1   MatProp=Default
 
TABLE:  "FRAME SECTION PROPERTIES 01 - GENERAL"
   SectionName=EB   Material=BTCT   Shape=Rectangular   t3=1.2   t2=0.5   Area=0.6   TorsConst=0.0369079665195795   I33=0.072   I22=0.0125   I23=0   AS2=0.5   AS3=0.5   S33Top=0.12   S33Bot=0.12   S22Left=0.05   S22Right=0.05   Z33=0.18 _
        Z22=0.075   R33=0.346410161513775   R22=0.144337567297406   CGOffset3=0   CGOffset2=0   EccV2=0   EccV3=0   Cw=0   Color=Cyan   FromFile=No   AMod=1   A2Mod=1   A3Mod=1   JMod=1   I2Mod=1   I3Mod=1   MMod=1   WMod=1
   SectionName=EB-1   Material=BTCT   Shape=Rectangular   t3=0.5   t2=0.5   Area=0.25   TorsConst=0.00880208333333333   I33=0.00520833333333333   I22=0.00520833333333333   I23=0   AS2=0.208333333333333   AS3=0.208333333333333 _
        S33Top=0.0208333333333333   S33Bot=0.0208333333333333   S22Left=0.0208333333333333   S22Right=0.0208333333333333   Z33=0.03125   Z22=0.03125   R33=0.144337567297406   R22=0.144337567297406   CGOffset3=0   CGOffset2=0   EccV2=0 _
        EccV3=0   Cw=0   Color=Red   FromFile=No   AMod=1   A2Mod=1   A3Mod=1   JMod=1   I2Mod=1   I3Mod=1   MMod=1   WMod=1
   SectionName=LB   Material=BTCT   Shape=Rectangular   t3=0.5   t2=0.5   Area=0.25   TorsConst=0.00880208333333333   I33=0.00520833333333333   I22=0.00520833333333333   I23=0   AS2=0.208333333333333   AS3=0.208333333333333 _
        S33Top=0.0208333333333333   S33Bot=0.0208333333333333   S22Left=0.0208333333333333   S22Right=0.0208333333333333   Z33=0.03125   Z22=0.03125   R33=0.144337567297406   R22=0.144337567297406   CGOffset3=0   CGOffset2=0   EccV2=0 _
        EccV3=0   Cw=0   Color=Green   FromFile=No   AMod=1   A2Mod=1   A3Mod=1   JMod=1   I2Mod=1   I3Mod=1   MMod=1   WMod=1
   SectionName=Piles   Material=BTCTCOC   Shape=Pipe   t3=0.3   tw=0.06   Area=0.045238934211693   TorsConst=0.000692155693438903   I33=0.000346077846719452   I22=0.000346077846719452   I23=0   AS2=0.0235427106611872 _
        AS3=0.0235427106611872   S33Top=0.00230718564479634   S33Bot=0.00230718564479634   S22Left=0.00230718564479634   S22Right=0.00230718564479634   Z33=0.003528   Z22=0.003528   R33=0.0874642784226795   R22=0.0874642784226795 _
        CGOffset3=0   CGOffset2=0   EccV2=0   EccV3=0   Cw=0   Color=Magenta   FromFile=No   AMod=1   A2Mod=1   A3Mod=1   JMod=1   I2Mod=1   I3Mod=1   MMod=1   WMod=1
   SectionName=TB   Material=BTCT   Shape=Rectangular   t3=0.5   t2=0.5   Area=0.25   TorsConst=0.00880208333333333   I33=0.00520833333333333   I22=0.00520833333333333   I23=0   AS2=0.208333333333333   AS3=0.208333333333333 _
        S33Top=0.0208333333333333   S33Bot=0.0208333333333333   S22Left=0.0208333333333333   S22Right=0.0208333333333333   Z33=0.03125   Z22=0.03125   R33=0.144337567297406   R22=0.144337567297406   CGOffset3=0   CGOffset2=0   EccV2=0 _
        EccV3=0   Cw=0   Color=Blue   FromFile=No   AMod=1   A2Mod=1   A3Mod=1   JMod=1   I2Mod=1   I3Mod=1   MMod=1   WMod=1
 
TABLE:  "FRAME SECTION PROPERTIES 02 - CONCRETE COLUMN"
   SectionName=EB   RebarMatL=A706   RebarMatC=A706   ReinfConfig=Rectangular   LatReinf=Ties   Cover=0.05   NumBars3Dir=2   NumBars2Dir=2   BarSizeL=12d   BarSizeC=10d   SpacingC=0.1   NumCBars2=2   NumCBars3=2   ReinfType=Design
   SectionName=EB-1   RebarMatL=A706   RebarMatC=A706   ReinfConfig=Rectangular   LatReinf=Ties   Cover=0.05   NumBars3Dir=2   NumBars2Dir=2   BarSizeL=12d   BarSizeC=10d   SpacingC=0.1   NumCBars2=2   NumCBars3=2   ReinfType=Design
   SectionName=LB   RebarMatL=A706   RebarMatC=A706   ReinfConfig=Rectangular   LatReinf=Ties   Cover=0.05   NumBars3Dir=2   NumBars2Dir=2   BarSizeL=12d   BarSizeC=10d   SpacingC=0.1   NumCBars2=2   NumCBars3=2   ReinfType=Design
   SectionName=TB   RebarMatL=A706   RebarMatC=A706   ReinfConfig=Rectangular   LatReinf=Ties   Cover=0.05   NumBars3Dir=2   NumBars2Dir=2   BarSizeL=12d   BarSizeC=10d   SpacingC=0.1   NumCBars2=2   NumCBars3=2   ReinfType=Design
 
TABLE:  "FRAME SECTION PROPERTIES 13 - TIME DEPENDENT"
   SectionName=EB   TypeSize=Auto   AutoSFSize=1
   SectionName=EB-1   TypeSize=Auto   AutoSFSize=1
   SectionName=LB   TypeSize=Auto   AutoSFSize=1
   SectionName=Piles   TypeSize=Auto   AutoSFSize=1
   SectionName=TB   TypeSize=Auto   AutoSFSize=1
 
TABLE:  "FUNCTION - PLOT FUNCTIONS"
   PlotFunc="Input Energy"   Type=Energy   Component=Input   Mode=All
 
TABLE:  "FUNCTION - POWER SPECTRAL DENSITY - USER"
   Name=UNIFPSD   Frequency=0   Value=1
   Name=UNIFPSD   Frequency=1   Value=1
 
TABLE:  "FUNCTION - RESPONSE SPECTRUM - USER"
   Name=UNIFRS   Period=0   Accel=1   FuncDamp=0.05
   Name=UNIFRS   Period=1   Accel=1
 
TABLE:  "FUNCTION - STEADY STATE - USER"
   Name=UNIFSS   Frequency=0   Value=1
   Name=UNIFSS   Frequency=1   Value=1
 
TABLE:  "FUNCTION - TIME HISTORY - USER"
   Name=RAMPTH   Time=0   Value=0
   Name=RAMPTH   Time=1   Value=1
   Name=RAMPTH   Time=4   Value=1
   Name=UNIFTH   Time=0   Value=1
   Name=UNIFTH   Time=1   Value=1
 
TABLE:  "GRID LINES"
   CoordSys=GLOBAL   AxisDir=X   GridID=A   XRYZCoord=-10   LineType=Primary   LineColor=Gray8Dark   Visible=Yes   BubbleLoc=End   AllVisible=Yes   BubbleSize=0.9375
   CoordSys=GLOBAL   AxisDir=X   GridID=B   XRYZCoord=-9   LineType=Primary   LineColor=Gray8Dark   Visible=Yes   BubbleLoc=End
   CoordSys=GLOBAL   AxisDir=X   GridID=C   XRYZCoord=-4.5   LineType=Primary   LineColor=Gray8Dark   Visible=Yes   BubbleLoc=End
   CoordSys=GLOBAL   AxisDir=X   GridID=D   XRYZCoord=0   LineType=Primary   LineColor=Gray8Dark   Visible=Yes   BubbleLoc=End
   CoordSys=GLOBAL   AxisDir=X   GridID=E   XRYZCoord=4.5   LineType=Primary   LineColor=Gray8Dark   Visible=Yes   BubbleLoc=End
   CoordSys=GLOBAL   AxisDir=X   GridID=F   XRYZCoord=9   LineType=Primary   LineColor=Gray8Dark   Visible=Yes   BubbleLoc=End
   CoordSys=GLOBAL   AxisDir=X   GridID=G   XRYZCoord=10   LineType=Primary   LineColor=Gray8Dark   Visible=Yes   BubbleLoc=End
   CoordSys=GLOBAL   AxisDir=Y   GridID=1   XRYZCoord=-5.2   LineType=Primary   LineColor=Gray8Dark   Visible=Yes   BubbleLoc=Start
   CoordSys=GLOBAL   AxisDir=Y   GridID=2   XRYZCoord=-4.2   LineType=Primary   LineColor=Gray8Dark   Visible=Yes   BubbleLoc=Start
   CoordSys=GLOBAL   AxisDir=Y   GridID=3   XRYZCoord=0   LineType=Primary   LineColor=Gray8Dark   Visible=Yes   BubbleLoc=Start
   CoordSys=GLOBAL   AxisDir=Y   GridID=4   XRYZCoord=4.2   LineType=Primary   LineColor=Gray8Dark   Visible=Yes   BubbleLoc=Start
   CoordSys=GLOBAL   AxisDir=Y   GridID=5   XRYZCoord=4.8   LineType=Primary   LineColor=Gray8Dark   Visible=Yes   BubbleLoc=Start
   CoordSys=GLOBAL   AxisDir=Z   GridID=Z1   XRYZCoord=0   LineType=Primary   LineColor=Gray8Dark   Visible=Yes   BubbleLoc=End
   CoordSys=GLOBAL   AxisDir=Z   GridID=Z2   XRYZCoord=13   LineType=Primary   LineColor=Gray8Dark   Visible=Yes   BubbleLoc=End
 
TABLE:  "GROUPS 1 - DEFINITIONS"
   GroupName=ALL   Selection=Yes   SectionCut=Yes   Steel=Yes   Concrete=Yes   Aluminum=Yes   ColdFormed=Yes   Stage=Yes   Bridge=Yes   AutoSeismic=No   AutoWind=No   SelDesSteel=No   SelDesAlum=No   SelDesCold=No   MassWeight=Yes   Color=Red
   GroupName=Pile   Selection=Yes   SectionCut=Yes   Steel=Yes   Concrete=Yes   Aluminum=Yes   ColdFormed=Yes   Stage=Yes   Bridge=Yes   AutoSeismic=No   AutoWind=No   SelDesSteel=No   SelDesAlum=No   SelDesCold=No   MassWeight=Yes   Color=Gray8Dark
   GroupName=DN   Selection=Yes   SectionCut=Yes   Steel=Yes   Concrete=Yes   Aluminum=Yes   ColdFormed=Yes   Stage=Yes   Bridge=Yes   AutoSeismic=No   AutoWind=No   SelDesSteel=No   SelDesAlum=No   SelDesCold=No   MassWeight=Yes   Color=Yellow
   GroupName=Pile_Toe   Selection=Yes   SectionCut=Yes   Steel=Yes   Concrete=Yes   Aluminum=Yes   ColdFormed=Yes   Stage=Yes   Bridge=Yes   AutoSeismic=No   AutoWind=No   SelDesSteel=No   SelDesAlum=No   SelDesCold=No   MassWeight=Yes   Color=Green
   GroupName=Pile_Bend   Selection=Yes   SectionCut=Yes   Steel=Yes   Concrete=Yes   Aluminum=Yes   ColdFormed=Yes   Stage=Yes   Bridge=Yes   AutoSeismic=No   AutoWind=No   SelDesSteel=No   SelDesAlum=No   SelDesCold=No   MassWeight=Yes   Color=Cyan
   GroupName=Beam   Selection=Yes   SectionCut=Yes   Steel=Yes   Concrete=Yes   Aluminum=Yes   ColdFormed=Yes   Stage=Yes   Bridge=Yes   AutoSeismic=No   AutoWind=No   SelDesSteel=No   SelDesAlum=No   SelDesCold=No   MassWeight=Yes   Color=Blue
   GroupName=Piles   Selection=Yes   SectionCut=Yes   Steel=Yes   Concrete=Yes   Aluminum=Yes   ColdFormed=Yes   Stage=Yes   Bridge=Yes   AutoSeismic=No   AutoWind=No   SelDesSteel=No   SelDesAlum=No   SelDesCold=No   MassWeight=Yes   Color=Cyan
   GroupName=Beams   Selection=Yes   SectionCut=Yes   Steel=Yes   Concrete=Yes   Aluminum=Yes   ColdFormed=Yes   Stage=Yes   Bridge=Yes   AutoSeismic=No   AutoWind=No   SelDesSteel=No   SelDesAlum=No   SelDesCold=No   MassWeight=Yes   Color=Red
 
TABLE:  "GROUPS 2 - ASSIGNMENTS"
 
TABLE:  "JOINT COORDINATES"
   Joint=711126   CoordSys=GLOBAL   CoordType=Cartesian   XorR=-9   Y=-5   Z=0   SpecialJt=No   GUID=37e5e313-7d4c-4013-a23e-8bab321071da
   Joint=711127   CoordSys=GLOBAL   CoordType=Cartesian   XorR=-9   Y=-2.65   Z=0   SpecialJt=No   GUID=bbccb03e-5e23-4260-93e1-4648e8b7183c
   Joint=711128   CoordSys=GLOBAL   CoordType=Cartesian   XorR=-6   Y=-5   Z=0   SpecialJt=No   GUID=6cb3e2c0-9594-4b03-a487-ad4e15bdbc19
   Joint=711129   CoordSys=GLOBAL   CoordType=Cartesian   XorR=-6   Y=-2.65   Z=0   SpecialJt=No   GUID=0f7a8faa-b824-47d0-a046-c07339c88028
   Joint=711130   CoordSys=GLOBAL   CoordType=Cartesian   XorR=-3   Y=-5   Z=0   SpecialJt=No   GUID=660a4b30-a8f6-4233-a696-b1902bfb0d51
   Joint=711131   CoordSys=GLOBAL   CoordType=Cartesian   XorR=-3   Y=-2.65   Z=0   SpecialJt=No   GUID=5e0e73d4-f65c-46ee-9a58-44992f5a4a7b
   Joint=711132   CoordSys=GLOBAL   CoordType=Cartesian   XorR=0   Y=-5   Z=0   SpecialJt=No   GUID=e2d96d1b-97c0-49f3-8bd8-afa89aaab24c
   Joint=711133   CoordSys=GLOBAL   CoordType=Cartesian   XorR=0   Y=-2.65   Z=0   SpecialJt=No   GUID=8fd3e1c8-6127-428b-bf66-bc858060af22
   Joint=711134   CoordSys=GLOBAL   CoordType=Cartesian   XorR=3   Y=-5   Z=0   SpecialJt=No   GUID=0b1ba385-989c-46ce-849d-26cb682bced0
   Joint=711135   CoordSys=GLOBAL   CoordType=Cartesian   XorR=3   Y=-2.65   Z=0   SpecialJt=No   GUID=3b62affa-4bde-4c01-89aa-3adac44558f2
   Joint=711136   CoordSys=GLOBAL   CoordType=Cartesian   XorR=6   Y=-5   Z=0   SpecialJt=No   GUID=3f48cdbb-7a37-44ed-bd94-7c0c4389042d
   Joint=711137   CoordSys=GLOBAL   CoordType=Cartesian   XorR=6   Y=-2.65   Z=0   SpecialJt=No   GUID=8fc1004a-77a2-4018-afbc-9d967a84e0c4
   Joint=711138   CoordSys=GLOBAL   CoordType=Cartesian   XorR=9   Y=-5   Z=0   SpecialJt=No   GUID=86903049-cc0b-444b-9328-6ab86b5609ae
   Joint=711139   CoordSys=GLOBAL   CoordType=Cartesian   XorR=9   Y=-2.65   Z=0   SpecialJt=No   GUID=0d75260a-862a-489d-b361-9291bf5f6cb7
   Joint=711140   CoordSys=GLOBAL   CoordType=Cartesian   XorR=-9   Y=2.65   Z=0   SpecialJt=No   GUID=3e7997da-1928-496e-a132-bd93e9e55b2b
   Joint=711141   CoordSys=GLOBAL   CoordType=Cartesian   XorR=-6   Y=2.65   Z=0   SpecialJt=No   GUID=a6ed6b8a-6494-43e4-a74b-bf04efbd599e
   Joint=711142   CoordSys=GLOBAL   CoordType=Cartesian   XorR=-3   Y=2.65   Z=0   SpecialJt=No   GUID=9378a920-0490-440c-8290-629086ed863d
   Joint=711143   CoordSys=GLOBAL   CoordType=Cartesian   XorR=0   Y=2.65   Z=0   SpecialJt=No   GUID=7276e31c-4e36-466b-af36-d57cf8b5ec90
   Joint=711144   CoordSys=GLOBAL   CoordType=Cartesian   XorR=3   Y=2.65   Z=0   SpecialJt=No   GUID=f6d74f4b-4190-4865-904e-e68a69120cd4
   Joint=711145   CoordSys=GLOBAL   CoordType=Cartesian   XorR=6   Y=2.65   Z=0   SpecialJt=No   GUID=6e6dce2a-88f3-4c5b-8434-f3e646a66601
   Joint=711146   CoordSys=GLOBAL   CoordType=Cartesian   XorR=9   Y=2.65   Z=0   SpecialJt=No   GUID=e571429a-ac03-42b6-a08f-e2473029dc8b
   Joint=711147   CoordSys=GLOBAL   CoordType=Cartesian   XorR=-9   Y=5   Z=0   SpecialJt=No   GUID=31a0bc54-9f4c-4e04-a72d-53ab3f13b6d6
   Joint=711148   CoordSys=GLOBAL   CoordType=Cartesian   XorR=-6   Y=5   Z=0   SpecialJt=No   GUID=95b2dfe6-2d30-4676-902e-89fd6bb17d49
   Joint=711149   CoordSys=GLOBAL   CoordType=Cartesian   XorR=-3   Y=5   Z=0   SpecialJt=No   GUID=907a5618-6e1b-4189-ad84-e99bd3856e02
   Joint=711150   CoordSys=GLOBAL   CoordType=Cartesian   XorR=0   Y=5   Z=0   SpecialJt=No   GUID=fc8cfde6-f4b4-444e-9b44-4703fc28182f
   Joint=711151   CoordSys=GLOBAL   CoordType=Cartesian   XorR=3   Y=5   Z=0   SpecialJt=No   GUID=60fff01e-f48b-44d8-9c98-8ad097c9f454
   Joint=711152   CoordSys=GLOBAL   CoordType=Cartesian   XorR=6   Y=5   Z=0   SpecialJt=No   GUID=2cf4ff9e-b9d8-4f14-a8ab-265e819d07be
   Joint=711153   CoordSys=GLOBAL   CoordType=Cartesian   XorR=9   Y=5   Z=0   SpecialJt=No   GUID=22a9a1cb-3c5e-46fd-ac62-f7b2af0c92b5
   Joint=711154   CoordSys=GLOBAL   CoordType=Cartesian   XorR=-10   Y=-2.65   Z=0   SpecialJt=No   GUID=a8211eec-fd7e-42ab-918f-8b1ab1f10ba7
   Joint=711155   CoordSys=GLOBAL   CoordType=Cartesian   XorR=-10   Y=2.65   Z=0   SpecialJt=No   GUID=5def90c3-453c-41a4-8c6c-8959acb7a6e4
   Joint=711156   CoordSys=GLOBAL   CoordType=Cartesian   XorR=10   Y=-2.65   Z=0   SpecialJt=No   GUID=68e27d71-1cb5-4176-bd74-742e946d6e06
   Joint=711157   CoordSys=GLOBAL   CoordType=Cartesian   XorR=10   Y=2.65   Z=0   SpecialJt=No   GUID=bc8ae8a7-d4ea-46af-af17-d3e773eccac0
   Joint=711158   CoordSys=GLOBAL   CoordType=Cartesian   XorR=-9   Y=-2.65   Z=-3   SpecialJt=No   GUID=616ea1c0-3e08-4d94-9e1b-f916e510ea0e
   Joint=711159   CoordSys=GLOBAL   CoordType=Cartesian   XorR=-9   Y=-2.65   Z=-13.4180229476075   SpecialJt=No   GUID=145cd917-841e-4efe-88c3-d78d1fd70688
   Joint=711160   CoordSys=GLOBAL   CoordType=Cartesian   XorR=-9   Y=-2.65   Z=-39   SpecialJt=No   GUID=e3089ae8-b647-4a45-b124-525d18f5f4ed
   Joint=711161   CoordSys=GLOBAL   CoordType=Cartesian   XorR=-6   Y=-2.65   Z=-3   SpecialJt=No   GUID=d48bde1a-dfd8-480d-891a-222ee7d20ea2
   Joint=711162   CoordSys=GLOBAL   CoordType=Cartesian   XorR=-6   Y=-2.65   Z=-13.4180229476075   SpecialJt=No   GUID=bd53c54b-9f1b-4343-82f1-c6046064b749
   Joint=711163   CoordSys=GLOBAL   CoordType=Cartesian   XorR=-6   Y=-2.65   Z=-39   SpecialJt=No   GUID=39b818f2-110f-4b5e-bd10-333288d41e19
   Joint=711164   CoordSys=GLOBAL   CoordType=Cartesian   XorR=-3   Y=-2.65   Z=-3   SpecialJt=No   GUID=8ca374b2-31fd-47c9-86fd-f0dfdd5152dc
   Joint=711165   CoordSys=GLOBAL   CoordType=Cartesian   XorR=-3   Y=-2.65   Z=-13.4180229476075   SpecialJt=No   GUID=ee96c5cc-bb1a-415a-b246-6a02320c82a3
   Joint=711166   CoordSys=GLOBAL   CoordType=Cartesian   XorR=-3   Y=-2.65   Z=-39   SpecialJt=No   GUID=25a76680-721f-4664-bc31-f2254fc1d46b
   Joint=711167   CoordSys=GLOBAL   CoordType=Cartesian   XorR=0   Y=-2.65   Z=-3   SpecialJt=No   GUID=b49f076a-ae91-48d8-b205-706ce1d323ee
   Joint=711168   CoordSys=GLOBAL   CoordType=Cartesian   XorR=0   Y=-2.65   Z=-13.4180229476075   SpecialJt=No   GUID=f0eba234-048b-48e4-9010-0fdf83af8270
   Joint=711169   CoordSys=GLOBAL   CoordType=Cartesian   XorR=0   Y=-2.65   Z=-39   SpecialJt=No   GUID=2ef5a4ca-5990-4dbe-bdc2-e5fad79d9650
   Joint=711170   CoordSys=GLOBAL   CoordType=Cartesian   XorR=3   Y=-2.65   Z=-3   SpecialJt=No   GUID=28a16268-931b-42c7-8d24-69409419cd40
   Joint=711171   CoordSys=GLOBAL   CoordType=Cartesian   XorR=3   Y=-2.65   Z=-13.4180229476075   SpecialJt=No   GUID=8d727057-10bb-4a33-ae29-f182d6112dd7
   Joint=711172   CoordSys=GLOBAL   CoordType=Cartesian   XorR=3   Y=-2.65   Z=-39   SpecialJt=No   GUID=bd7e5e1f-c30c-44eb-bc05-0b5ec142c122
   Joint=711173   CoordSys=GLOBAL   CoordType=Cartesian   XorR=6   Y=-2.65   Z=-3   SpecialJt=No   GUID=d5724374-f59b-44be-b80d-ecf83270eefc
   Joint=711174   CoordSys=GLOBAL   CoordType=Cartesian   XorR=6   Y=-2.65   Z=-13.4180229476075   SpecialJt=No   GUID=a37b893b-523c-4f7e-abe6-f8e889b0d62b
   Joint=711175   CoordSys=GLOBAL   CoordType=Cartesian   XorR=6   Y=-2.65   Z=-39   SpecialJt=No   GUID=6b7cdf1d-7ab6-4dd7-bc8d-b20331d812b2
   Joint=711176   CoordSys=GLOBAL   CoordType=Cartesian   XorR=9   Y=-2.65   Z=-3   SpecialJt=No   GUID=3458f622-cb09-4ac8-8c88-a3c09b258910
   Joint=711177   CoordSys=GLOBAL   CoordType=Cartesian   XorR=9   Y=-2.65   Z=-13.4180229476075   SpecialJt=No   GUID=9def1b97-2a15-4df7-b862-9081637601ce
   Joint=711178   CoordSys=GLOBAL   CoordType=Cartesian   XorR=9   Y=-2.65   Z=-39   SpecialJt=No   GUID=4872080e-8853-44a2-b9d7-76ba065b06b6
   Joint=711179   CoordSys=GLOBAL   CoordType=Cartesian   XorR=-9   Y=2.65   Z=-13.4180229476075   SpecialJt=No   GUID=c5cd9913-eaa3-45b6-84fe-e4610f6b2c30
   Joint=711180   CoordSys=GLOBAL   CoordType=Cartesian   XorR=-9   Y=2.65   Z=-39   SpecialJt=No   GUID=6115e383-44ed-4285-84f1-11e1757a53f0
   Joint=711181   CoordSys=GLOBAL   CoordType=Cartesian   XorR=-6   Y=2.65   Z=-13.4180229476075   SpecialJt=No   GUID=379a738a-3473-49e8-91d1-fc9eebcca249
   Joint=711182   CoordSys=GLOBAL   CoordType=Cartesian   XorR=-6   Y=2.65   Z=-39   SpecialJt=No   GUID=42b22b07-78b3-41b7-a6a1-f9cca0eaa40f
   Joint=711183   CoordSys=GLOBAL   CoordType=Cartesian   XorR=-3   Y=2.65   Z=-13.4180229476075   SpecialJt=No   GUID=6f6a5c4c-b104-4bf8-aa1b-7b6fcca6cc3e
   Joint=711184   CoordSys=GLOBAL   CoordType=Cartesian   XorR=-3   Y=2.65   Z=-39   SpecialJt=No   GUID=c3928195-a37d-4527-a197-512c18a4dfed
   Joint=711185   CoordSys=GLOBAL   CoordType=Cartesian   XorR=0   Y=2.65   Z=-13.4180229476075   SpecialJt=No   GUID=c575ee40-2b79-4c2e-af93-3208ea8b960c
   Joint=711186   CoordSys=GLOBAL   CoordType=Cartesian   XorR=0   Y=2.65   Z=-39   SpecialJt=No   GUID=4cc4f72a-06a0-4b7d-8b84-b5b4ffefae84
   Joint=711187   CoordSys=GLOBAL   CoordType=Cartesian   XorR=3   Y=2.65   Z=-13.4180229476075   SpecialJt=No   GUID=baa115e4-5b49-4620-852d-acc25b21aed7
   Joint=711188   CoordSys=GLOBAL   CoordType=Cartesian   XorR=3   Y=2.65   Z=-39   SpecialJt=No   GUID=e6a6bbe1-1d5d-4950-927d-149839a75ccd
   Joint=711189   CoordSys=GLOBAL   CoordType=Cartesian   XorR=6   Y=2.65   Z=-13.4180229476075   SpecialJt=No   GUID=203e568d-19c7-4ac4-bdcf-5b99050c26c4
   Joint=711190   CoordSys=GLOBAL   CoordType=Cartesian   XorR=6   Y=2.65   Z=-39   SpecialJt=No   GUID=680dd13d-a799-4ad9-aee4-0e530fed5ff4
   Joint=711191   CoordSys=GLOBAL   CoordType=Cartesian   XorR=9   Y=2.65   Z=-13.4180229476075   SpecialJt=No   GUID=691b2eb9-c135-4bcb-80c6-3fb928ec129c
   Joint=711192   CoordSys=GLOBAL   CoordType=Cartesian   XorR=9   Y=2.65   Z=-39   SpecialJt=No   GUID=041e8686-b4db-4d53-9d77-adf5151a5166
   Joint=711193   CoordSys=GLOBAL   CoordType=Cartesian   XorR=-10   Y=-5   Z=0   SpecialJt=No   GUID=9bd61990-9044-400d-bd57-b5beebbbcdf7
   Joint=711194   CoordSys=GLOBAL   CoordType=Cartesian   XorR=10   Y=-5   Z=0   SpecialJt=No   GUID=ee00d804-5808-4ed3-bb86-a0a29a846eca
   Joint=711195   CoordSys=GLOBAL   CoordType=Cartesian   XorR=-10   Y=5   Z=0   SpecialJt=No   GUID=35fdcc70-f395-49b9-a039-c50460c2430e
   Joint=711196   CoordSys=GLOBAL   CoordType=Cartesian   XorR=10   Y=5   Z=0   SpecialJt=No   GUID=03477f6b-735f-46fd-9c45-87986f77e1f2
 
TABLE:  "JOINT PATTERN DEFINITIONS"
   Pattern=Default
 
TABLE:  "JOINT RESTRAINT ASSIGNMENTS"
   Joint=711159   U1=Yes   U2=Yes   U3=No   R1=Yes   R2=Yes   R3=Yes
   Joint=711160   U1=No   U2=No   U3=Yes   R1=No   R2=No   R3=No
   Joint=711162   U1=Yes   U2=Yes   U3=No   R1=Yes   R2=Yes   R3=Yes
   Joint=711163   U1=No   U2=No   U3=Yes   R1=No   R2=No   R3=No
   Joint=711165   U1=Yes   U2=Yes   U3=No   R1=Yes   R2=Yes   R3=Yes
   Joint=711166   U1=No   U2=No   U3=Yes   R1=No   R2=No   R3=No
   Joint=711168   U1=Yes   U2=Yes   U3=No   R1=Yes   R2=Yes   R3=Yes
   Joint=711169   U1=No   U2=No   U3=Yes   R1=No   R2=No   R3=No
   Joint=711171   U1=Yes   U2=Yes   U3=No   R1=Yes   R2=Yes   R3=Yes
   Joint=711172   U1=No   U2=No   U3=Yes   R1=No   R2=No   R3=No
   Joint=711174   U1=Yes   U2=Yes   U3=No   R1=Yes   R2=Yes   R3=Yes
   Joint=711175   U1=No   U2=No   U3=Yes   R1=No   R2=No   R3=No
   Joint=711177   U1=Yes   U2=Yes   U3=No   R1=Yes   R2=Yes   R3=Yes
   Joint=711178   U1=No   U2=No   U3=Yes   R1=No   R2=No   R3=No
   Joint=711179   U1=Yes   U2=Yes   U3=No   R1=Yes   R2=Yes   R3=Yes
   Joint=711180   U1=No   U2=No   U3=Yes   R1=No   R2=No   R3=No
   Joint=711181   U1=Yes   U2=Yes   U3=No   R1=Yes   R2=Yes   R3=Yes
   Joint=711182   U1=No   U2=No   U3=Yes   R1=No   R2=No   R3=No
   Joint=711183   U1=Yes   U2=Yes   U3=No   R1=Yes   R2=Yes   R3=Yes
   Joint=711184   U1=No   U2=No   U3=Yes   R1=No   R2=No   R3=No
   Joint=711185   U1=Yes   U2=Yes   U3=No   R1=Yes   R2=Yes   R3=Yes
   Joint=711186   U1=No   U2=No   U3=Yes   R1=No   R2=No   R3=No
   Joint=711187   U1=Yes   U2=Yes   U3=No   R1=Yes   R2=Yes   R3=Yes
   Joint=711188   U1=No   U2=No   U3=Yes   R1=No   R2=No   R3=No
   Joint=711189   U1=Yes   U2=Yes   U3=No   R1=Yes   R2=Yes   R3=Yes
   Joint=711190   U1=No   U2=No   U3=Yes   R1=No   R2=No   R3=No
   Joint=711191   U1=Yes   U2=Yes   U3=No   R1=Yes   R2=Yes   R3=Yes
   Joint=711192   U1=No   U2=No   U3=Yes   R1=No   R2=No   R3=No
 
TABLE:  "LOAD CASE DEFINITIONS"
   Case=DEAD   Type=LinStatic   InitialCond=Zero   DesTypeOpt="Prog Det"   DesignType=Dead   DesActOpt="Prog Det"   DesignAct=Non-Composite   AutoType=None   RunCase=Yes
   Case=MODAL   Type=LinModal   InitialCond=Zero   DesTypeOpt="Prog Det"   DesignType=Other   DesActOpt="Prog Det"   DesignAct=Other   AutoType=None   RunCase=Yes
   Case=LL   Type=LinStatic   InitialCond=Zero   DesTypeOpt="Prog Det"   DesignType=Live   DesActOpt="Prog Det"   DesignAct="Short-Term Composite"   AutoType=None   RunCase=Yes
 
TABLE:  "LOAD PATTERN DEFINITIONS"
   LoadPat=DEAD   DesignType=Dead   SelfWtMult=1
   LoadPat=LL   DesignType=Live   SelfWtMult=0
 
TABLE:  "MASS SOURCE"
   MassSource=MSSSRC1   Elements=Yes   Masses=Yes   Loads=No   IsDefault=Yes
 
TABLE:  "MATERIAL PROPERTIES 01 - GENERAL"
   Material=A706   Type=Rebar   SymType=Uniaxial   TempDepend=No   Color=Gray8Dark   GUID=30185aab-1311-4f4b-9ffe-ddad707d22d9   Notes="ASTM A706 added 8/23/2025 4:27:57 PM"
   Material=BTCT   Type=Concrete   SymType=Isotropic   TempDepend=No   Color=Blue   Notes="Concrete added 24-Feb-23 16:30:01"
   Material=BTCTCOC   Type=Concrete   SymType=Isotropic   TempDepend=No   Color=Blue   Notes="Concrete added 24-Feb-23 16:30:01"
   Material=Steel   Type=Steel   SymType=Isotropic   TempDepend=No   Color=Magenta   GUID=2f952889-4898-4964-97a4-5fb5c5008d33   Notes="Steel added 8/24/2025 2:51:43 PM"
   Material=Tendon   Type=Tendon   SymType=Uniaxial   TempDepend=No   Color=Yellow   GUID=7dfcd093-823e-4b3a-b96f-35d5bcaf456f   Notes="Tendon added 8/24/2025 2:51:43 PM"
 
TABLE:  "MATERIAL PROPERTIES 02 - BASIC MECHANICAL PROPERTIES"
   Material=A706   UnitWeight=7.84904757236607   UnitMass=0.800380070686609   E1=20389019.1580383   A1=1.16999994421006E-05
   Material=BTCT   UnitWeight=2.40276966501002   UnitMass=0.245014307353044   E1=2900000   G12=1208333.33333333   U12=0.2   A1=9.9E-06
   Material=BTCTCOC   UnitWeight=2.40276966501002   UnitMass=0.245014307353044   E1=3800000000   G12=1583333333.33333   U12=0.2   A1=9.9E-06
   Material=Steel   UnitWeight=7.84904757236607   UnitMass=0.800380070686609   E1=20389019.1580383   G12=7841930.44539935   U12=0.3   A1=1.17E-05
   Material=Tendon   UnitWeight=7.84904757236607   UnitMass=0.800380070686609   E1=20037484.3449687   A1=1.16999994421006E-05
 
TABLE:  "MATERIAL PROPERTIES 03A - STEEL DATA"
   Material=Steel   Fy=35153.4813069626   Fu=45699.5256990514   EffFy=38668.8294376589   EffFu=50269.4782689565   SSCurveOpt=Simple   SSHysType=Kinematic   SHard=0.015   SMax=0.11   SRup=0.17   FinalSlope=-0.1   CoupModType="Von Mises"
 
TABLE:  "MATERIAL PROPERTIES 03B - CONCRETE DATA"
   Material=BTCT   Fc=2812.27850455701   eFc=2812.27850455701   LtWtConc=No   SSCurveOpt=Mander   SSHysType=Takeda   SFc=0.002   SCap=0.005   FinalSlope=-0.1   FAngle=0   DAngle=0   CoupModType="Modified Darwin-Pecknold"
   Material=BTCTCOC   Fc=2812.27850455701   eFc=2812.27850455701   LtWtConc=No   SSCurveOpt=Mander   SSHysType=Takeda   SFc=0.002   SCap=0.005   FinalSlope=-0.1   FAngle=0   DAngle=0   CoupModType="Modified Darwin-Pecknold"
 
TABLE:  "MATERIAL PROPERTIES 03E - REBAR DATA"
   Material=A706   Fy=42184.1775683551   Fu=56245.5700911402   EffFy=46402.5953251907   EffFu=61870.1271002542   SSCurveOpt=Simple   SSHysType=Kinematic   SHard=0.011   SCap=0.11   FinalSlope=-0.1   UseCTDef=No   CoupModType="Von Mises"
 
TABLE:  "MATERIAL PROPERTIES 03F - TENDON DATA"
   Material=Tendon   Fy=172322.365366731   Fu=189828.799057598   SSCurveOpt="270 ksi"   SSHysType=Kinematic   FinalSlope=-0.1   CoupModType="Von Mises"
 
TABLE:  "MATERIAL PROPERTIES 03J - COUPLED NONLINEAR VON MISES DATA"
   Material=A706   YieldStress=46402.5953251907   LinIsoHard=No   LinKinHard=No   NLIsoSaHard=No
   Material=Steel   YieldStress=38668.8294376589   LinIsoHard=No   LinKinHard=No   NLIsoSaHard=No
   Material=Tendon   YieldStress=172322.365366731   LinIsoHard=No   LinKinHard=No   NLIsoSaHard=No
 
TABLE:  "MATERIAL PROPERTIES 06 - DAMPING PARAMETERS"
   Material=A706   ModalRatio=0   VisMass=0   VisStiff=0   HysMass=0   HysStiff=0
   Material=BTCT   ModalRatio=0   VisMass=0   VisStiff=0   HysMass=0   HysStiff=0
   Material=BTCTCOC   ModalRatio=0   VisMass=0   VisStiff=0   HysMass=0   HysStiff=0
   Material=Steel   ModalRatio=0   VisMass=0   VisStiff=0   HysMass=0   HysStiff=0
   Material=Tendon   ModalRatio=0   VisMass=0   VisStiff=0   HysMass=0   HysStiff=0
 
TABLE:  "MATERIAL PROPERTIES 09 - ACCEPTANCE CRITERIA"
   Material=A706   IOTens=0.01   LSTens=0.02   CPTens=0.05   IOComp=-0.005   LSComp=-0.01   CPComp=-0.02
   Material=BTCT   IOTens=0.01   LSTens=0.02   CPTens=0.05   IOComp=-0.003   LSComp=-0.006   CPComp=-0.015   IgnoreTens=Yes
   Material=BTCTCOC   IOTens=0.01   LSTens=0.02   CPTens=0.05   IOComp=-0.003   LSComp=-0.006   CPComp=-0.015   IgnoreTens=Yes
   Material=Steel   IOTens=0.01   LSTens=0.02   CPTens=0.05   IOComp=-0.005   LSComp=-0.01   CPComp=-0.02
   Material=Tendon   IOTens=0.015   LSTens=0.023   CPTens=0.03   IOComp=-0.015   LSComp=-0.023   CPComp=-0.03
 
TABLE:  "OPTIONS - COLORS - DISPLAY"
   DeviceType=Screen   Points=Blue   LinesFrame=Blue   LinesFrmDL=Blue   LinesCable=Green   LinesTendon=Green   SpringLinks=Green   Restraints=Green   Releases=Green   Axes=Cyan   Text=Black   ShadowLines=Gray8Dark   GuideLines=Gray8Dark _
        Highlight=Red   Selection=10504778   AreaFillBot=Red   AreaFillTop=16744703   AreaFillSd=Red   AreaEdge=DarkRed   SolidF1=Red   SolidF2=Blue   SolidF3=Green   SolidF4=Yellow   SolidF5=White   SolidF6=Cyan   SolidEdge=DarkRed _
        Floor=Gray4   Background=White   BGLowLeft=White   BGLowRight=White   BGUpRight=White   Darkness=0.5
   DeviceType=Printer   Points=Gray8Dark   LinesFrame=Black   LinesFrmDL=Gray4   LinesCable=Black   LinesTendon=Black   SpringLinks=Gray8Dark   Restraints=Gray8Dark   Releases=Gray4   Axes=Black   Text=Black   ShadowLines=Gray4 _
        GuideLines=Gray4   Highlight=Black   Selection=Black   AreaFillBot=Gray4   AreaFillTop=Gray8Dark   AreaFillSd=Gray4   AreaEdge=Black   SolidF1=Gray1Light   SolidF2=Gray2   SolidF3=Gray3   SolidF4=Gray4   SolidF5=Gray5 _
        SolidF6=Gray6   SolidEdge=Black   Floor=Gray4   Background=White   BGLowLeft=White   BGLowRight=White   BGUpRight=White   Darkness=0.5
   DeviceType="Color Printer"   Points=Blue   LinesFrame=Blue   LinesFrmDL=Blue   LinesCable=Green   LinesTendon=Green   SpringLinks=Green   Restraints=Green   Releases=Green   Axes=Cyan   Text=Black   ShadowLines=Gray8Dark _
        GuideLines=Gray8Dark   Highlight=Red   Selection=10504778   AreaFillBot=Red   AreaFillTop=16744703   AreaFillSd=Red   AreaEdge=DarkRed   SolidF1=Red   SolidF2=Blue   SolidF3=Green   SolidF4=Yellow   SolidF5=White   SolidF6=Cyan _
        SolidEdge=DarkRed   Floor=Gray4   Background=White   BGLowLeft=White   BGLowRight=White   BGUpRight=White   Darkness=0.5
 
TABLE:  "OPTIONS - COLORS - OUTPUT"
   DeviceType=Screen   Contour1=13107400   Contour2=6553828   Contour3=Red   Contour4=16639   Contour5=Orange   Contour6=43775   Contour7=54527   Contour8=Yellow   Contour9=65408   Contour10=Green   Contour11=8453888   Contour12=Cyan _
        Contour13=16755200   Contour14=16733440   Contour15=Blue   Transpare=0.5   Ratio1=Cyan   Ratio2=Green   Ratio3=Yellow   Ratio4=Orange   Ratio5=Red   RatioNotD=Gray4   RatioNotC=Red   RatioVal1=0.5   RatioVal2=0.7   RatioVal3=0.9 _
        RatioVal4=1   DFillPos=Blue   DFillNeg=Red   DFillRPos=Green   DFillRNeg=Green
   DeviceType=Printer   Contour1=Black   Contour2=3158064   Contour3=4210752   Contour4=5263440   Contour5=6316128   Contour6=7368816   Contour7=Gray8Dark   Contour8=Gray7   Contour9=Gray6   Contour10=Gray5   Contour11=Gray4 _
        Contour12=Gray3   Contour13=Gray2   Contour14=Gray1Light   Contour15=White   Transpare=0   Ratio1=Gray2   Ratio2=Gray4   Ratio3=Gray8Dark   Ratio4=4210752   Ratio5=Black   RatioNotD=Gray4   RatioNotC=Black   RatioVal1=0.5 _
        RatioVal2=0.7   RatioVal3=0.9   RatioVal4=1   DFillPos=Gray8Dark   DFillNeg=Gray8Dark   DFillRPos=4210752   DFillRNeg=4210752
   DeviceType="Color Printer"   Contour1=13107400   Contour2=6553828   Contour3=Red   Contour4=16639   Contour5=Orange   Contour6=43775   Contour7=54527   Contour8=Yellow   Contour9=65408   Contour10=Green   Contour11=8453888 _
        Contour12=Cyan   Contour13=16755200   Contour14=16733440   Contour15=Blue   Transpare=0   Ratio1=Cyan   Ratio2=Green   Ratio3=Yellow   Ratio4=Orange   Ratio5=Red   RatioNotD=Gray4   RatioNotC=Red   RatioVal1=0.5   RatioVal2=0.7 _
        RatioVal3=0.9   RatioVal4=1   DFillPos=Blue   DFillNeg=Red   DFillRPos=Green   DFillRNeg=Green
 
TABLE:  "OVERWRITES - CONCRETE DESIGN - CSA-A233-14"
   Frame=797933   DesignSect="Program Determined"   FrameType="Program Determined"   RLLF=0   XLMajor=0   XLMinor=0   XKMajor=0   XKMinor=0   CmMajor=0   CmMinor=0   DbMajor=0   DbMinor=0   DsMajor=0   DsMinor=0   Rd=0   Ro=0   MaxAggSize=0
   Frame=797934   DesignSect="Program Determined"   FrameType="Program Determined"   RLLF=0   XLMajor=0   XLMinor=0   XKMajor=0   XKMinor=0   CmMajor=0   CmMinor=0   DbMajor=0   DbMinor=0   DsMajor=0   DsMinor=0   Rd=0   Ro=0   MaxAggSize=0
   Frame=797935   DesignSect="Program Determined"   FrameType="Program Determined"   RLLF=0   XLMajor=0   XLMinor=0   XKMajor=0   XKMinor=0   CmMajor=0   CmMinor=0   DbMajor=0   DbMinor=0   DsMajor=0   DsMinor=0   Rd=0   Ro=0   MaxAggSize=0
   Frame=797936   DesignSect="Program Determined"   FrameType="Program Determined"   RLLF=0   XLMajor=0   XLMinor=0   XKMajor=0   XKMinor=0   CmMajor=0   CmMinor=0   DbMajor=0   DbMinor=0   DsMajor=0   DsMinor=0   Rd=0   Ro=0   MaxAggSize=0
   Frame=797937   DesignSect="Program Determined"   FrameType="Program Determined"   RLLF=0   XLMajor=0   XLMinor=0   XKMajor=0   XKMinor=0   CmMajor=0   CmMinor=0   DbMajor=0   DbMinor=0   DsMajor=0   DsMinor=0   Rd=0   Ro=0   MaxAggSize=0
   Frame=797938   DesignSect="Program Determined"   FrameType="Program Determined"   RLLF=0   XLMajor=0   XLMinor=0   XKMajor=0   XKMinor=0   CmMajor=0   CmMinor=0   DbMajor=0   DbMinor=0   DsMajor=0   DsMinor=0   Rd=0   Ro=0   MaxAggSize=0
   Frame=797939   DesignSect="Program Determined"   FrameType="Program Determined"   RLLF=0   XLMajor=0   XLMinor=0   XKMajor=0   XKMinor=0   CmMajor=0   CmMinor=0   DbMajor=0   DbMinor=0   DsMajor=0   DsMinor=0   Rd=0   Ro=0   MaxAggSize=0
   Frame=797940   DesignSect="Program Determined"   FrameType="Program Determined"   RLLF=0   XLMajor=0   XLMinor=0   XKMajor=0   XKMinor=0   CmMajor=0   CmMinor=0   DbMajor=0   DbMinor=0   DsMajor=0   DsMinor=0   Rd=0   Ro=0   MaxAggSize=0
   Frame=797941   DesignSect="Program Determined"   FrameType="Program Determined"   RLLF=0   XLMajor=0   XLMinor=0   XKMajor=0   XKMinor=0   CmMajor=0   CmMinor=0   DbMajor=0   DbMinor=0   DsMajor=0   DsMinor=0   Rd=0   Ro=0   MaxAggSize=0
   Frame=797942   DesignSect="Program Determined"   FrameType="Program Determined"   RLLF=0   XLMajor=0   XLMinor=0   XKMajor=0   XKMinor=0   CmMajor=0   CmMinor=0   DbMajor=0   DbMinor=0   DsMajor=0   DsMinor=0   Rd=0   Ro=0   MaxAggSize=0
   Frame=797943   DesignSect="Program Determined"   FrameType="Program Determined"   RLLF=0   XLMajor=0   XLMinor=0   XKMajor=0   XKMinor=0   CmMajor=0   CmMinor=0   DbMajor=0   DbMinor=0   DsMajor=0   DsMinor=0   Rd=0   Ro=0   MaxAggSize=0
   Frame=797944   DesignSect="Program Determined"   FrameType="Program Determined"   RLLF=0   XLMajor=0   XLMinor=0   XKMajor=0   XKMinor=0   CmMajor=0   CmMinor=0   DbMajor=0   DbMinor=0   DsMajor=0   DsMinor=0   Rd=0   Ro=0   MaxAggSize=0
   Frame=797945   DesignSect="Program Determined"   FrameType="Program Determined"   RLLF=0   XLMajor=0   XLMinor=0   XKMajor=0   XKMinor=0   CmMajor=0   CmMinor=0   DbMajor=0   DbMinor=0   DsMajor=0   DsMinor=0   Rd=0   Ro=0   MaxAggSize=0
   Frame=797946   DesignSect="Program Determined"   FrameType="Program Determined"   RLLF=0   XLMajor=0   XLMinor=0   XKMajor=0   XKMinor=0   CmMajor=0   CmMinor=0   DbMajor=0   DbMinor=0   DsMajor=0   DsMinor=0   Rd=0   Ro=0   MaxAggSize=0
   Frame=797947   DesignSect="Program Determined"   FrameType="Program Determined"   RLLF=0   XLMajor=0   XLMinor=0   XKMajor=0   XKMinor=0   CmMajor=0   CmMinor=0   DbMajor=0   DbMinor=0   DsMajor=0   DsMinor=0   Rd=0   Ro=0   MaxAggSize=0
   Frame=797948   DesignSect="Program Determined"   FrameType="Program Determined"   RLLF=0   XLMajor=0   XLMinor=0   XKMajor=0   XKMinor=0   CmMajor=0   CmMinor=0   DbMajor=0   DbMinor=0   DsMajor=0   DsMinor=0   Rd=0   Ro=0   MaxAggSize=0
   Frame=797949   DesignSect="Program Determined"   FrameType="Program Determined"   RLLF=0   XLMajor=0   XLMinor=0   XKMajor=0   XKMinor=0   CmMajor=0   CmMinor=0   DbMajor=0   DbMinor=0   DsMajor=0   DsMinor=0   Rd=0   Ro=0   MaxAggSize=0
   Frame=797950   DesignSect="Program Determined"   FrameType="Program Determined"   RLLF=0   XLMajor=0   XLMinor=0   XKMajor=0   XKMinor=0   CmMajor=0   CmMinor=0   DbMajor=0   DbMinor=0   DsMajor=0   DsMinor=0   Rd=0   Ro=0   MaxAggSize=0
   Frame=797951   DesignSect="Program Determined"   FrameType="Program Determined"   RLLF=0   XLMajor=0   XLMinor=0   XKMajor=0   XKMinor=0   CmMajor=0   CmMinor=0   DbMajor=0   DbMinor=0   DsMajor=0   DsMinor=0   Rd=0   Ro=0   MaxAggSize=0
   Frame=797952   DesignSect="Program Determined"   FrameType="Program Determined"   RLLF=0   XLMajor=0   XLMinor=0   XKMajor=0   XKMinor=0   CmMajor=0   CmMinor=0   DbMajor=0   DbMinor=0   DsMajor=0   DsMinor=0   Rd=0   Ro=0   MaxAggSize=0
# ... 30 like lines cut
 
TABLE:  "PREFERENCES - ALUMINUM DESIGN - AA 2015"
   THDesign=Envelopes   SRatioLimit=1   Provision=ASD   LatFact=1.33333333333333   UseLatFact=No   Bridge=No   OmegaTy=1.65   OmegaTr=1.95   OmegaC=1.65   OmegaBo=1.65   OmegaBr=1.95   OmegaVo=1.65   OmegaVr=1.95
 
TABLE:  "PREFERENCES - COLD FORMED DESIGN - AISI-ASD96"
   THDesign=Envelopes   FrameType="Braced Frame"   SRatioLimit=1   MaxIter=1   OmegaBS=1.67   OmegaBUS=1.67   OmegaBLTB=1.67   OmegaVS=1.67   OmegaVNS=1.5   OmegaT=1.67   OmegaC=1.8
 
TABLE:  "PREFERENCES - CONCRETE DESIGN - CSA-A233-14"
   THDesign=Envelopes   NumCurves=24   NumPoints=11   MinEccen=Yes   BCCDesign=Yes   CTorsion=Yes   PatLLF=0.75   UFLimit=0.95   PhiS=0.85   PhiC=0.65
 
TABLE:  "PREFERENCES - CONCRETE SHELL DESIGN - EUROCODE 2-2004"
   Country="CEN Default"   GammaS=1.15   GammaC=1.5   AlphaCC=1
 
TABLE:  "PREFERENCES - DIMENSIONAL"
   MergeTol=0.001   FineGrid=0.25   Nudge=0.25   SelectTol=3   SnapTol=12   SLineThick=1   PLineThick=4   MaxFont=8   MinFont=3   AutoZoom=10   ShrinkFact=70   TextFileLen=240
 
TABLE:  "PREFERENCES - STEEL DESIGN - AISC 360-10"
   THDesign=Envelopes   FrameType=SMF   PatLLF=0.75   SRatioLimit=0.95   MaxIter=1   SDC=D   SeisCode=No   SeisLoad=No   ImpFactor=1   SystemRho=1   SystemSds=0.5   SystemR=8   SystemCd=5.5   Omega0=3   Provision=LRFD _
        AMethod="Direct Analysis"   SOMethod="General 2nd Order"   SRMethod="Tau-b Fixed"   NLCoeff=0.002   PhiB=0.9   PhiC=0.9   PhiTY=0.9   PhiTF=0.75   PhiV=0.9   PhiVRolledI=1   PhiVT=0.9   PlugWeld=Yes   HSSWelding=ERW   HSSReduceT=No _
        CheckDefl=No   DLRat=120   SDLAndLLRat=120   LLRat=360   TotalRat=240   NetRat=240
 
TABLE:  "PROGRAM CONTROL"
   ProgramName=SAP2000   Version=24.0.0   CurrUnits="Tonf, m, C"   SteelCode="AISC 360-10"   ConcCode="CSA A23.3-14"   AlumCode="AA 2015"   ColdCode=AISI-ASD96   RegenHinge=Yes
 
TABLE:  "PROJECT INFORMATION"
   Item="Company Name"   Data=po
   Item="Client Name"
   Item="Project Name"
   Item="Project Number"
   Item="Model Name"
   Item="Model Description"
   Item="Revision Number"
   Item="Frame Type"
   Item=Engineer
   Item=Checker
   Item=Supervisor
   Item="Issue Code"
   Item="Design Code"
 
TABLE:  "REBAR SIZES"
   RebarID=#2   Area=3.2258E-05   Diameter=0.00635
   RebarID=#3   Area=7.09675996154547E-05   Diameter=0.009525
   RebarID=#4   Area=0.000129032001922727   Diameter=0.0127
   RebarID=#5   Area=0.000199999601538181   Diameter=0.015875
   RebarID=#6   Area=0.000283870398461819   Diameter=0.01905
   RebarID=#7   Area=0.000387096015381813   Diameter=0.022225
   RebarID=#8   Area=0.000509676413843632   Diameter=0.0254
   RebarID=#9   Area=0.00064516   Diameter=0.0286512005329132
   RebarID=#10   Area=0.00081935318769455   Diameter=0.0322579995155334
   RebarID=#11   Area=0.00100644956308365   Diameter=0.0358139991521835
   RebarID=#14   Area=0.00145161   Diameter=0.0430021989583969
   RebarID=#18   Area=0.00258064   Diameter=0.0573277992248535
   RebarID=10M   Area=0.000100000004162606   Diameter=0.0113000003604438
   RebarID=15M   Area=0.000200000008325212   Diameter=0.0160000002402959
   RebarID=20M   Area=0.000300000012487818   Diameter=0.0195000002928606
   RebarID=25M   Area=0.000500000020813031   Diameter=0.0252000011414055
   RebarID=30M   Area=0.000700000029138243   Diameter=0.0299000000675832
   RebarID=35M   Area=0.00100000004162606   Diameter=0.0357000012990997
   RebarID=45M   Area=0.00150000006243909   Diameter=0.0437000014192476
   RebarID=55M   Area=0.00250000010406515   Diameter=0.056400002372922
   RebarID=6d   Area=2.83000004150781E-05   Diameter=0.00600000009011096
   RebarID=8d   Area=5.03000013308514E-05   Diameter=0.00800000012014795
   RebarID=10d   Area=7.85000032676458E-05   Diameter=0.0100000001501849
   RebarID=12d   Area=0.000113000004703745   Diameter=0.0120000001802219
   RebarID=14d   Area=0.000154000006410413   Diameter=0.0140000002102589
   RebarID=16d   Area=0.000201000008366838   Diameter=0.0160000002402959
   RebarID=20d   Area=0.000314000013070583   Diameter=0.0200000003003699
   RebarID=25d   Area=0.000491000020438396   Diameter=0.0250000003754623
   RebarID=26d   Area=0.000531000022103439   Diameter=0.0260000003904808
   RebarID=28d   Area=0.000616000025641654   Diameter=0.0280000004205178
   RebarID=N12   Area=0.000113000004703745   Diameter=0.0120000001802219
   RebarID=N16   Area=0.000201000008366838   Diameter=0.0160000002402959
   RebarID=N20   Area=0.000314000013070583   Diameter=0.0200000003003699
   RebarID=N24   Area=0.00045200001881498   Diameter=0.0240000003604438
   RebarID=N28   Area=0.000616000025641654   Diameter=0.0280000004205178
   RebarID=N32   Area=0.000804000033467353   Diameter=0.0320000004805918
   RebarID=N36   Area=0.00102000004245858   Diameter=0.0360000005406658
 
TABLE:  "SOLID PROPERTY DEFINITIONS"
   SolidProp=Solid1   Material=BTCT   MatAngleA=0   MatAngleB=0   MatAngleC=0   InComp=Yes   Color=Gray8Dark
 
END TABLE DATA
