File D:\ResearchLab\02_Projects\02_Projects\Tap chi XD_SFOA\code\SOO_MPJ\MPJ_Sap\SOO_Cost_W10\MPJ_10.$2k was saved on m/d/yy at h:mm:ss
 
TABLE:  "ACTIVE DEGREES OF FREEDOM"
   UX=Yes   UY=Yes   UZ=Yes   RX=Yes   RY=Yes   RZ=Yes
 
TABLE:  "ANALYSIS OPTIONS"
   Solver=Advanced   SolverProc=Auto   Force32Bit=No   StiffCase=None   GeomMod=None   HingeOpt="In Elements"   NumAThreads=0   MaxFileSize=0   NumDThreads=0   NumRThreads=0   UseMMFiles="Program Determined"   AllowDiff=No
 
TABLE:  "AREA AUTO MESH ASSIGNMENTS"
   Area=18065   MeshType="Number of Elements"   MeshGroup=ALL   Number1=3   Number2=3   LocalEdge=No   LocalFace=No   SuppEdge=No   SuppFace=No   SubMesh=No
   Area=18066   MeshType="Number of Elements"   MeshGroup=ALL   Number1=3   Number2=3   LocalEdge=No   LocalFace=No   SuppEdge=No   SuppFace=No   SubMesh=No
   Area=18067   MeshType="Number of Elements"   MeshGroup=ALL   Number1=3   Number2=3   LocalEdge=No   LocalFace=No   SuppEdge=No   SuppFace=No   SubMesh=No
   Area=18068   MeshType="Number of Elements"   MeshGroup=ALL   Number1=3   Number2=3   LocalEdge=No   LocalFace=No   SuppEdge=No   SuppFace=No   SubMesh=No
   Area=18069   MeshType="Number of Elements"   MeshGroup=ALL   Number1=3   Number2=3   LocalEdge=No   LocalFace=No   SuppEdge=No   SuppFace=No   SubMesh=No
   Area=18070   MeshType="Number of Elements"   MeshGroup=ALL   Number1=3   Number2=3   LocalEdge=No   LocalFace=No   SuppEdge=No   SuppFace=No   SubMesh=No
   Area=18071   MeshType="Number of Elements"   MeshGroup=ALL   Number1=3   Number2=3   LocalEdge=No   LocalFace=No   SuppEdge=No   SuppFace=No   SubMesh=No
   Area=18072   MeshType="Number of Elements"   MeshGroup=ALL   Number1=3   Number2=3   LocalEdge=No   LocalFace=No   SuppEdge=No   SuppFace=No   SubMesh=No
   Area=18073   MeshType="Number of Elements"   MeshGroup=ALL   Number1=3   Number2=3   LocalEdge=No   LocalFace=No   SuppEdge=No   SuppFace=No   SubMesh=No
   Area=18074   MeshType="Number of Elements"   MeshGroup=ALL   Number1=3   Number2=3   LocalEdge=No   LocalFace=No   SuppEdge=No   SuppFace=No   SubMesh=No
   Area=18075   MeshType="Number of Elements"   MeshGroup=ALL   Number1=3   Number2=3   LocalEdge=No   LocalFace=No   SuppEdge=No   SuppFace=No   SubMesh=No
   Area=18076   MeshType="Number of Elements"   MeshGroup=ALL   Number1=3   Number2=3   LocalEdge=No   LocalFace=No   SuppEdge=No   SuppFace=No   SubMesh=No
   Area=18077   MeshType="Number of Elements"   MeshGroup=ALL   Number1=3   Number2=3   LocalEdge=No   LocalFace=No   SuppEdge=No   SuppFace=No   SubMesh=No
   Area=18078   MeshType="Number of Elements"   MeshGroup=ALL   Number1=3   Number2=3   LocalEdge=No   LocalFace=No   SuppEdge=No   SuppFace=No   SubMesh=No
   Area=18079   MeshType="Number of Elements"   MeshGroup=ALL   Number1=3   Number2=3   LocalEdge=No   LocalFace=No   SuppEdge=No   SuppFace=No   SubMesh=No
   Area=18080   MeshType="Number of Elements"   MeshGroup=ALL   Number1=3   Number2=3   LocalEdge=No   LocalFace=No   SuppEdge=No   SuppFace=No   SubMesh=No
   Area=18081   MeshType="Number of Elements"   MeshGroup=ALL   Number1=3   Number2=3   LocalEdge=No   LocalFace=No   SuppEdge=No   SuppFace=No   SubMesh=No
   Area=18082   MeshType="Number of Elements"   MeshGroup=ALL   Number1=3   Number2=3   LocalEdge=No   LocalFace=No   SuppEdge=No   SuppFace=No   SubMesh=No
   Area=18083   MeshType="Number of Elements"   MeshGroup=ALL   Number1=3   Number2=3   LocalEdge=No   LocalFace=No   SuppEdge=No   SuppFace=No   SubMesh=No
   Area=18084   MeshType="Number of Elements"   MeshGroup=ALL   Number1=3   Number2=3   LocalEdge=No   LocalFace=No   SuppEdge=No   SuppFace=No   SubMesh=No
# ... 4 like lines cut
 
TABLE:  "AREA LOADS - UNIFORM"
   Area=18065   LoadPat=LL   CoordSys=GLOBAL   Dir=Gravity   UnifLoad=1.00034158457019
   Area=18066   LoadPat=LL   CoordSys=GLOBAL   Dir=Gravity   UnifLoad=1.00034158457019
   Area=18067   LoadPat=LL   CoordSys=GLOBAL   Dir=Gravity   UnifLoad=1.00034158457019
   Area=18068   LoadPat=LL   CoordSys=GLOBAL   Dir=Gravity   UnifLoad=1.00034158457019
   Area=18069   LoadPat=LL   CoordSys=GLOBAL   Dir=Gravity   UnifLoad=1.00034158457019
   Area=18070   LoadPat=LL   CoordSys=GLOBAL   Dir=Gravity   UnifLoad=1.00034158457019
   Area=18071   LoadPat=LL   CoordSys=GLOBAL   Dir=Gravity   UnifLoad=1.00034158457019
   Area=18072   LoadPat=LL   CoordSys=GLOBAL   Dir=Gravity   UnifLoad=1.00034158457019
   Area=18073   LoadPat=LL   CoordSys=GLOBAL   Dir=Gravity   UnifLoad=1.00034158457019
   Area=18074   LoadPat=LL   CoordSys=GLOBAL   Dir=Gravity   UnifLoad=1.00034158457019
   Area=18075   LoadPat=LL   CoordSys=GLOBAL   Dir=Gravity   UnifLoad=1.00034158457019
   Area=18076   LoadPat=LL   CoordSys=GLOBAL   Dir=Gravity   UnifLoad=1.00034158457019
   Area=18077   LoadPat=LL   CoordSys=GLOBAL   Dir=Gravity   UnifLoad=1.00034158457019
   Area=18078   LoadPat=LL   CoordSys=GLOBAL   Dir=Gravity   UnifLoad=1.00034158457019
   Area=18079   LoadPat=LL   CoordSys=GLOBAL   Dir=Gravity   UnifLoad=1.00034158457019
   Area=18080   LoadPat=LL   CoordSys=GLOBAL   Dir=Gravity   UnifLoad=1.00034158457019
   Area=18081   LoadPat=LL   CoordSys=GLOBAL   Dir=Gravity   UnifLoad=1.00034158457019
   Area=18082   LoadPat=LL   CoordSys=GLOBAL   Dir=Gravity   UnifLoad=1.00034158457019
   Area=18083   LoadPat=LL   CoordSys=GLOBAL   Dir=Gravity   UnifLoad=1.00034158457019
   Area=18084   LoadPat=LL   CoordSys=GLOBAL   Dir=Gravity   UnifLoad=1.00034158457019
# ... 4 like lines cut
 
TABLE:  "AREA SECTION ASSIGNMENTS"
   Area=18065   Section=Deck   MatProp=Default
   Area=18066   Section=Deck   MatProp=Default
   Area=18067   Section=Deck   MatProp=Default
   Area=18068   Section=Deck   MatProp=Default
   Area=18069   Section=Deck   MatProp=Default
   Area=18070   Section=Deck   MatProp=Default
   Area=18071   Section=Deck   MatProp=Default
   Area=18072   Section=Deck   MatProp=Default
   Area=18073   Section=Deck   MatProp=Default
   Area=18074   Section=Deck   MatProp=Default
   Area=18075   Section=Deck   MatProp=Default
   Area=18076   Section=Deck   MatProp=Default
   Area=18077   Section=Deck   MatProp=Default
   Area=18078   Section=Deck   MatProp=Default
   Area=18079   Section=Deck   MatProp=Default
   Area=18080   Section=Deck   MatProp=Default
   Area=18081   Section=Deck   MatProp=Default
   Area=18082   Section=Deck   MatProp=Default
   Area=18083   Section=Deck   MatProp=Default
   Area=18084   Section=Deck   MatProp=Default
# ... 4 like lines cut
 
TABLE:  "AREA SECTION PROPERTIES"
   Section=Deck   Material=BTCT   MatAngle=0   AreaType=Shell   Type=Shell-Thin   DrillDOF=Yes   Thickness=0.3   BendThick=0.3   Color=Green   F11Mod=1   F22Mod=1   F12Mod=1   M11Mod=1   M22Mod=1   M12Mod=1   V13Mod=1   V23Mod=1   MMod=1 _
        WMod=1   Notes="Added 24-Feb-23 16:56:47"
 
TABLE:  "AREA SECTION PROPERTY DESIGN PARAMETERS"
   Section=Deck   RebarMat=None   RebarOpt=Default
 
TABLE:  "AREA SECTION PROPERTY - TIME DEPENDENT"
   Section=Deck   TypeSize=User   AutoSFSize=1   UserValSize=0.1
 
TABLE:  "AUTO COMBINATION OPTION DATA 01 - GENERAL"
   DesignType=Concrete   AutoGen=Yes
 
TABLE:  "AUTO COMBINATION OPTION DATA 02 - USER DATA"
   DesignType=Concrete   LSType=Strength   LCName=DEAD
   DesignType=Concrete   LSType=Strength   LCName=LL
 
TABLE:  "AUTO WAVE 3 - WAVE CHARACTERISTICS - GENERAL"
   WaveChar=Default   WaveType="From Theory"   KinFactor=1   SWaterDepth=45   WaveHeight=18   WavePeriod=12   WaveTheory=Linear
 
TABLE:  "CASE - MODAL 1 - GENERAL"
   Case=MODAL   ModeType=Eigen   MaxNumModes=12   MinNumModes=1   EigenShift=0   EigenCutoff=0   EigenTol=1E-09   AutoShift=Yes
 
TABLE:  "CASE - STATIC 1 - LOAD ASSIGNMENTS"
   Case=DEAD   LoadType="Load pattern"   LoadName=DEAD   LoadSF=1
   Case=LL   LoadType="Load pattern"   LoadName=LL   LoadSF=1
 
TABLE:  "COMBINATION DEFINITIONS"
   ComboName=COMB1   ComboType="Linear Add"   AutoDesign=No   CaseName=DEAD   ScaleFactor=1   SteelDesign=None   ConcDesign=Strength   AlumDesign=None   ColdDesign=None
   ComboName=COMB2   ComboType="Linear Add"   AutoDesign=No   CaseName=DEAD   ScaleFactor=1   SteelDesign=None   ConcDesign=Strength   AlumDesign=None   ColdDesign=None
   ComboName=COMB2   CaseName=LL   ScaleFactor=1
   ComboName=BAO   ComboType=Envelope   AutoDesign=No   CaseName=COMB1   ScaleFactor=1   SteelDesign=None   ConcDesign=Strength   AlumDesign=None   ColdDesign=None
   ComboName=BAO   CaseName=COMB2   ScaleFactor=1
   ComboName=DCON1   ComboType="Linear Add"   AutoDesign=Yes   CaseName=DEAD   ScaleFactor=1.4   SteelDesign=None   ConcDesign=Strength   AlumDesign=None   ColdDesign=None   GUID=bb4fff9a-98b5-44d1-9fde-34d92700a8e9   Notes="Dead Only; Strength"
   ComboName=DCON2   ComboType="Linear Add"   AutoDesign=Yes   CaseName=DEAD   ScaleFactor=1.25   SteelDesign=None   ConcDesign=Strength   AlumDesign=None   ColdDesign=None   GUID=505bcda7-6fac-4dd0-b03e-c591d1ffc6ce   Notes="Dead + Live; Strength"
   ComboName=DCON2   CaseName=LL   ScaleFactor=1.5
 
TABLE:  "CONNECTIVITY - AREA"
   Area=18065   Joint1=52929   Joint2=52888   Joint3=52864   Joint4=52863   GUID=106c81a7-a08e-42cb-9bc0-310f78327c39
   Area=18066   Joint1=52863   Joint2=52864   Joint3=52866   Joint4=52865   GUID=0072ef6f-3300-4b0b-9c5b-1cdf83b579da
   Area=18067   Joint1=52865   Joint2=52866   Joint3=52868   Joint4=52867   GUID=ae8e0907-b2a1-40cd-b4ce-3597e5c9828e
   Area=18068   Joint1=52867   Joint2=52868   Joint3=52870   Joint4=52869   GUID=c22e857c-6ac1-4e1f-9d37-668e4255a7e7
   Area=18069   Joint1=52869   Joint2=52870   Joint3=52872   Joint4=52871   GUID=efb55699-d089-480b-ab57-ce67b41b8cd3
   Area=18070   Joint1=52871   Joint2=52872   Joint3=52891   Joint4=52930   GUID=a588975f-70fb-44ef-b6ed-ccba549beaef
   Area=18071   Joint1=52888   Joint2=52889   Joint3=52873   Joint4=52864   GUID=aef6e652-4047-40cf-ae9c-d119c2f01f05
   Area=18072   Joint1=52864   Joint2=52873   Joint3=52874   Joint4=52866   GUID=ec6414a4-515b-4c34-be48-422193d4b6d4
   Area=18073   Joint1=52866   Joint2=52874   Joint3=52875   Joint4=52868   GUID=7ad104c1-6bb8-40e0-94a8-c9679ae96bf2
   Area=18074   Joint1=52868   Joint2=52875   Joint3=52876   Joint4=52870   GUID=80f5674f-09d3-4987-98bc-da85565f425e
   Area=18075   Joint1=52870   Joint2=52876   Joint3=52877   Joint4=52872   GUID=1aa1ddc5-650c-4d5f-959b-ee362f5e9c93
   Area=18076   Joint1=52872   Joint2=52877   Joint3=52892   Joint4=52891   GUID=7768b807-4942-4a2a-9624-e3e1bfdbcb56
   Area=18077   Joint1=52889   Joint2=52890   Joint3=52878   Joint4=52873   GUID=6a589fe4-0bc2-44a3-b70c-24e5849701e8
   Area=18078   Joint1=52873   Joint2=52878   Joint3=52879   Joint4=52874   GUID=fedba714-60e3-469e-a39b-7cc624079052
   Area=18079   Joint1=52874   Joint2=52879   Joint3=52880   Joint4=52875   GUID=3115f4c4-142b-4727-8180-93db4c68d33c
   Area=18080   Joint1=52875   Joint2=52880   Joint3=52881   Joint4=52876   GUID=c2a4c77b-3b5e-41e8-ba21-f6ef1d792873
   Area=18081   Joint1=52876   Joint2=52881   Joint3=52882   Joint4=52877   GUID=4bbc93ee-df96-4085-b2f0-f5c713bad3bc
   Area=18082   Joint1=52877   Joint2=52882   Joint3=52893   Joint4=52892   GUID=12d5195b-4056-4218-8e35-f06fdb0d4fa1
   Area=18083   Joint1=52890   Joint2=52931   Joint3=52883   Joint4=52878   GUID=7f019b50-4ea0-4403-9005-af3698247874
   Area=18084   Joint1=52878   Joint2=52883   Joint3=52884   Joint4=52879   GUID=ecd46d64-c0f4-4c9a-9e50-8f1d03d82ce8
   Area=18085   Joint1=52879   Joint2=52884   Joint3=52885   Joint4=52880   GUID=52c263d2-fa8a-48a0-9919-bf75926fe8ac
   Area=18086   Joint1=52880   Joint2=52885   Joint3=52886   Joint4=52881   GUID=1e87543a-56c0-4b7e-8f5b-faf33ef8d916
   Area=18087   Joint1=52881   Joint2=52886   Joint3=52887   Joint4=52882   GUID=82007201-b028-439e-b36c-748dbe374714
   Area=18088   Joint1=52882   Joint2=52887   Joint3=52932   Joint4=52893   GUID=dc80e9a5-ce13-443b-bb17-cb1f1703f202
 
TABLE:  "CONNECTIVITY - FRAME"
   Frame=58057   JointI=52863   JointJ=52864   IsCurved=No   GUID=f0894d54-d590-417e-b4c5-2ae3ea580de1
   Frame=58058   JointI=52865   JointJ=52866   IsCurved=No   GUID=bad78c90-2060-41b0-b4f0-4f6391e6428c
   Frame=58059   JointI=52867   JointJ=52868   IsCurved=No   GUID=5d9a0352-7e2d-4728-8501-6852d83bbb13
   Frame=58060   JointI=52869   JointJ=52870   IsCurved=No   GUID=1cf135d7-6ebd-45d2-a2d9-c000295c5f8f
   Frame=58061   JointI=52871   JointJ=52872   IsCurved=No   GUID=ba0bd9b0-bd6c-48bd-a3e6-beb168052f42
   Frame=58062   JointI=52864   JointJ=52873   IsCurved=No   GUID=a8a26be9-db38-4770-a72b-7446dd06e0a6
   Frame=58063   JointI=52866   JointJ=52874   IsCurved=No   GUID=e599a412-dbcd-4809-b578-f084d695e58c
   Frame=58064   JointI=52868   JointJ=52875   IsCurved=No   GUID=87747e16-f96e-4f9c-8987-b2aeddb1edd0
   Frame=58065   JointI=52870   JointJ=52876   IsCurved=No   GUID=f8e804a6-1631-469c-bf45-aa31f94b026c
   Frame=58066   JointI=52872   JointJ=52877   IsCurved=No   GUID=eae1b3c0-39ad-48f6-b6b1-3ea948f81f5b
   Frame=58067   JointI=52873   JointJ=52878   IsCurved=No   GUID=b0fd5fe2-b027-4642-b860-0214f3ce54c6
   Frame=58068   JointI=52874   JointJ=52879   IsCurved=No   GUID=9d5cb4aa-381b-455e-8d4a-b2bea433d6ca
   Frame=58069   JointI=52875   JointJ=52880   IsCurved=No   GUID=a2cc66b5-6366-445f-b7ce-929d79ca7b19
   Frame=58070   JointI=52876   JointJ=52881   IsCurved=No   GUID=1604475d-2c8a-4054-8860-2d556e43ae6d
   Frame=58071   JointI=52877   JointJ=52882   IsCurved=No   GUID=4256c2e2-7cee-4970-b225-dc138e5a5d94
   Frame=58072   JointI=52878   JointJ=52883   IsCurved=No   GUID=d022bf17-b045-4a0b-b3c5-8cc8ca8d8a5d
   Frame=58073   JointI=52879   JointJ=52884   IsCurved=No   GUID=3dfbc936-1acf-4732-b30d-b1a712d5544d
   Frame=58074   JointI=52880   JointJ=52885   IsCurved=No   GUID=cd44ed8e-7f54-4248-bac6-a70dd9814bf9
   Frame=58075   JointI=52881   JointJ=52886   IsCurved=No   GUID=ce1d1594-5d55-49cb-a6c9-d1879bca8467
   Frame=58076   JointI=52882   JointJ=52887   IsCurved=No   GUID=c776334e-1ec9-4229-b786-7cb58da38ef2
   Frame=58077   JointI=52888   JointJ=52864   IsCurved=No   GUID=02f7bf48-f1bf-447d-91b2-d8616bbfedf7
   Frame=58078   JointI=52889   JointJ=52873   IsCurved=No   GUID=d16aabb3-c767-461a-a98f-9f837487e047
   Frame=58079   JointI=52890   JointJ=52878   IsCurved=No   GUID=27823e56-f04c-4e76-b267-49ff3d60b1ff
   Frame=58080   JointI=52864   JointJ=52866   IsCurved=No   GUID=104cbc6f-0863-4f21-a87d-0bc68d04730c
   Frame=58081   JointI=52873   JointJ=52874   IsCurved=No   GUID=62a3a2a9-9398-4c71-97f2-2e41331865bd
   Frame=58082   JointI=52878   JointJ=52879   IsCurved=No   GUID=33cdddc7-bdef-4bf1-ba23-fb9912ea1155
   Frame=58083   JointI=52866   JointJ=52868   IsCurved=No   GUID=a00fdc57-139d-46ac-814e-14878f8bd1eb
   Frame=58084   JointI=52874   JointJ=52875   IsCurved=No   GUID=3718e175-bfc7-4117-96b3-b864c4419ce4
   Frame=58085   JointI=52879   JointJ=52880   IsCurved=No   GUID=2a36db74-d28d-46e9-981b-152872db7e99
   Frame=58086   JointI=52868   JointJ=52870   IsCurved=No   GUID=f8b4e962-9aff-466f-9c0f-888aca463789
   Frame=58087   JointI=52875   JointJ=52876   IsCurved=No   GUID=83ebbdee-ef15-4c54-9ae6-1ed5eff05da4
   Frame=58088   JointI=52880   JointJ=52881   IsCurved=No   GUID=053f5813-cd56-4ccf-a9b3-f4e76f40da62
   Frame=58089   JointI=52870   JointJ=52872   IsCurved=No   GUID=16221f2a-5a8b-4fe3-8f2c-2ab40da9a815
   Frame=58090   JointI=52876   JointJ=52877   IsCurved=No   GUID=58ed9664-8914-4633-9f43-eafbd045f8f2
   Frame=58091   JointI=52881   JointJ=52882   IsCurved=No   GUID=6d7e7a04-c727-4fea-80e6-402566060f99
   Frame=58092   JointI=52872   JointJ=52891   IsCurved=No   GUID=c16abaaf-30d5-4b03-8310-4fe5b47b3ea0
   Frame=58093   JointI=52877   JointJ=52892   IsCurved=No   GUID=ce38bc5e-3cf0-408d-95bf-04aca94f0591
   Frame=58094   JointI=52882   JointJ=52893   IsCurved=No   GUID=c80a745f-2d15-4f07-a842-6449440af1a2
   Frame=58095   JointI=52864   JointJ=52894   IsCurved=No   GUID=e7defb40-43da-41c2-86df-49445645d2ec
   Frame=58096   JointI=52894   JointJ=52895   IsCurved=No   GUID=729fbbdf-4f8c-49e1-8223-07725fb4fd13
   Frame=58097   JointI=52895   JointJ=52896   IsCurved=No   GUID=278a8c60-dbc4-4599-8c15-a1f0942ec72d
   Frame=58098   JointI=52866   JointJ=52897   IsCurved=No   GUID=df8b99eb-293a-4af2-94fc-3af77c933578
   Frame=58099   JointI=52897   JointJ=52898   IsCurved=No   GUID=fcc81645-76e4-4b12-a935-6af3555d1f19
   Frame=58100   JointI=52898   JointJ=52899   IsCurved=No   GUID=a345d35a-b04d-4e3a-8d8a-b12ed3a44a21
   Frame=58101   JointI=52868   JointJ=52900   IsCurved=No   GUID=4335060d-f3ea-49b2-a03f-38e7a206cf30
   Frame=58102   JointI=52900   JointJ=52901   IsCurved=No   GUID=a4b175a9-1455-4ab5-bbdf-85f6aae72fea
   Frame=58103   JointI=52901   JointJ=52902   IsCurved=No   GUID=2c71d9f6-4a37-4c02-a13a-1f6ac1beeaf9
   Frame=58104   JointI=52870   JointJ=52903   IsCurved=No   GUID=2abfae92-e256-4ae3-b859-2e58768b8990
   Frame=58105   JointI=52903   JointJ=52904   IsCurved=No   GUID=e57815e7-f6ab-416a-ab99-e779229ff9ea
   Frame=58106   JointI=52904   JointJ=52905   IsCurved=No   GUID=323c9d47-a880-422d-ad47-abb76421d1e6
   Frame=58107   JointI=52872   JointJ=52906   IsCurved=No   GUID=4459989a-8dfc-4c7d-9c3f-53dc332516fd
   Frame=58108   JointI=52906   JointJ=52907   IsCurved=No   GUID=1808b439-9175-473b-898a-e4935e4251d8
   Frame=58109   JointI=52907   JointJ=52908   IsCurved=No   GUID=7127b0e3-4b9e-4b4c-987e-c28710e57fa2
   Frame=58110   JointI=52873   JointJ=52909   IsCurved=No   GUID=66e7f70d-3038-4ef0-b54d-82c2084e2f5a
   Frame=58111   JointI=52909   JointJ=52910   IsCurved=No   GUID=e89e6196-246f-4a7f-a8a9-5d685879da46
   Frame=58112   JointI=52874   JointJ=52911   IsCurved=No   GUID=a070741a-df45-4fc3-ae58-dd0179f1f164
   Frame=58113   JointI=52911   JointJ=52912   IsCurved=No   GUID=caa531b3-3ff7-4c6a-a37b-3d2455eb2763
   Frame=58114   JointI=52875   JointJ=52913   IsCurved=No   GUID=a1b8ffa6-6964-4818-abe6-d6304c40e46d
   Frame=58115   JointI=52913   JointJ=52914   IsCurved=No   GUID=bf8144fe-3453-4b3e-aa0b-e5ddd33dd80f
   Frame=58116   JointI=52876   JointJ=52915   IsCurved=No   GUID=4b611ef3-cfed-43d5-91fe-359c61cd85e0
   Frame=58117   JointI=52915   JointJ=52916   IsCurved=No   GUID=cf304ccf-2cab-4622-9dbe-a2504e59c173
   Frame=58118   JointI=52877   JointJ=52917   IsCurved=No   GUID=ad6a6e15-d5af-4693-9f7c-d24f82c51f58
   Frame=58119   JointI=52917   JointJ=52918   IsCurved=No   GUID=f7c8628b-55cb-4a95-a379-e6385a3c0819
   Frame=58120   JointI=52878   JointJ=52919   IsCurved=No   GUID=f7e5f949-8b65-44b2-9765-9a571c05eac5
   Frame=58121   JointI=52919   JointJ=52920   IsCurved=No   GUID=178b6d9d-e4f7-4830-b077-53ec2300cf5e
   Frame=58122   JointI=52879   JointJ=52921   IsCurved=No   GUID=149d1cd7-681b-4f16-ac9e-1047aa27073c
   Frame=58123   JointI=52921   JointJ=52922   IsCurved=No   GUID=1a35c7b9-52ef-44d4-a141-334162c97e77
   Frame=58124   JointI=52880   JointJ=52923   IsCurved=No   GUID=f1aaaf5e-2fab-4833-85d8-892e37e9b034
   Frame=58125   JointI=52923   JointJ=52924   IsCurved=No   GUID=bfabacb3-89f1-46c8-9f03-ec188b931b44
   Frame=58126   JointI=52881   JointJ=52925   IsCurved=No   GUID=89d678c0-0f50-45c9-a659-91345a52812f
   Frame=58127   JointI=52925   JointJ=52926   IsCurved=No   GUID=8fe7c902-7088-47a3-898b-4a4e123c70e9
   Frame=58128   JointI=52882   JointJ=52927   IsCurved=No   GUID=941b7f25-768f-4a67-897c-55f7706fbf4c
   Frame=58129   JointI=52927   JointJ=52928   IsCurved=No   GUID=d097f7f1-a73f-4511-8e16-b3ac3e0e0775
   Frame=58130   JointI=52894   JointJ=52897   IsCurved=No   GUID=4d1c7acc-80df-458c-9057-ca96303a1ea9
   Frame=58131   JointI=52897   JointJ=52900   IsCurved=No   GUID=b6abe4a1-1f75-4774-8b95-01d9dc74fc81
   Frame=58132   JointI=52900   JointJ=52903   IsCurved=No   GUID=c6a6fb33-1438-496e-9e72-c7a539528936
   Frame=58133   JointI=52903   JointJ=52906   IsCurved=No   GUID=ca2aa342-99ff-4514-90d3-813b2088e5fd
 
TABLE:  "COORDINATE SYSTEMS"
   Name=GLOBAL   Type=Cartesian   X=0   Y=0   Z=0   AboutZ=0   AboutY=0   AboutX=0
 
TABLE:  "DATABASE DOCUMENTATION"
 
TABLE:  "DATABASE FORMAT TYPES"
   UnitsCurr=Yes   OverrideE=No
 
TABLE:  "FRAME AUTO MESH ASSIGNMENTS"
   Frame=58057   AutoMesh=Yes   AtJoints=Yes   AtFrames=No   NumSegments=0   MaxLength=0   MaxDegrees=0
   Frame=58058   AutoMesh=Yes   AtJoints=Yes   AtFrames=No   NumSegments=0   MaxLength=0   MaxDegrees=0
   Frame=58059   AutoMesh=Yes   AtJoints=Yes   AtFrames=No   NumSegments=0   MaxLength=0   MaxDegrees=0
   Frame=58060   AutoMesh=Yes   AtJoints=Yes   AtFrames=No   NumSegments=0   MaxLength=0   MaxDegrees=0
   Frame=58061   AutoMesh=Yes   AtJoints=Yes   AtFrames=No   NumSegments=0   MaxLength=0   MaxDegrees=0
   Frame=58062   AutoMesh=Yes   AtJoints=Yes   AtFrames=No   NumSegments=0   MaxLength=0   MaxDegrees=0
   Frame=58063   AutoMesh=Yes   AtJoints=Yes   AtFrames=No   NumSegments=0   MaxLength=0   MaxDegrees=0
   Frame=58064   AutoMesh=Yes   AtJoints=Yes   AtFrames=No   NumSegments=0   MaxLength=0   MaxDegrees=0
   Frame=58065   AutoMesh=Yes   AtJoints=Yes   AtFrames=No   NumSegments=0   MaxLength=0   MaxDegrees=0
   Frame=58066   AutoMesh=Yes   AtJoints=Yes   AtFrames=No   NumSegments=0   MaxLength=0   MaxDegrees=0
   Frame=58067   AutoMesh=Yes   AtJoints=Yes   AtFrames=No   NumSegments=0   MaxLength=0   MaxDegrees=0
   Frame=58068   AutoMesh=Yes   AtJoints=Yes   AtFrames=No   NumSegments=0   MaxLength=0   MaxDegrees=0
   Frame=58069   AutoMesh=Yes   AtJoints=Yes   AtFrames=No   NumSegments=0   MaxLength=0   MaxDegrees=0
   Frame=58070   AutoMesh=Yes   AtJoints=Yes   AtFrames=No   NumSegments=0   MaxLength=0   MaxDegrees=0
   Frame=58071   AutoMesh=Yes   AtJoints=Yes   AtFrames=No   NumSegments=0   MaxLength=0   MaxDegrees=0
   Frame=58072   AutoMesh=Yes   AtJoints=Yes   AtFrames=No   NumSegments=0   MaxLength=0   MaxDegrees=0
   Frame=58073   AutoMesh=Yes   AtJoints=Yes   AtFrames=No   NumSegments=0   MaxLength=0   MaxDegrees=0
   Frame=58074   AutoMesh=Yes   AtJoints=Yes   AtFrames=No   NumSegments=0   MaxLength=0   MaxDegrees=0
   Frame=58075   AutoMesh=Yes   AtJoints=Yes   AtFrames=No   NumSegments=0   MaxLength=0   MaxDegrees=0
   Frame=58076   AutoMesh=Yes   AtJoints=Yes   AtFrames=No   NumSegments=0   MaxLength=0   MaxDegrees=0
# ... 57 like lines cut
 
TABLE:  "FRAME DESIGN PROCEDURES"
   Frame=58057   DesignProc="From Material"
   Frame=58058   DesignProc="From Material"
   Frame=58059   DesignProc="From Material"
   Frame=58060   DesignProc="From Material"
   Frame=58061   DesignProc="From Material"
   Frame=58062   DesignProc="From Material"
   Frame=58063   DesignProc="From Material"
   Frame=58064   DesignProc="From Material"
   Frame=58065   DesignProc="From Material"
   Frame=58066   DesignProc="From Material"
   Frame=58067   DesignProc="From Material"
   Frame=58068   DesignProc="From Material"
   Frame=58069   DesignProc="From Material"
   Frame=58070   DesignProc="From Material"
   Frame=58071   DesignProc="From Material"
   Frame=58072   DesignProc="From Material"
   Frame=58073   DesignProc="From Material"
   Frame=58074   DesignProc="From Material"
   Frame=58075   DesignProc="From Material"
   Frame=58076   DesignProc="From Material"
# ... 19 like lines cut
   Frame=58096   DesignProc="No Design"
   Frame=58097   DesignProc="No Design"
   Frame=58098   DesignProc="From Material"
   Frame=58099   DesignProc="No Design"
   Frame=58100   DesignProc="No Design"
   Frame=58101   DesignProc="From Material"
   Frame=58102   DesignProc="No Design"
   Frame=58103   DesignProc="No Design"
   Frame=58104   DesignProc="From Material"
   Frame=58105   DesignProc="No Design"
   Frame=58106   DesignProc="No Design"
   Frame=58107   DesignProc="From Material"
   Frame=58108   DesignProc="No Design"
   Frame=58109   DesignProc="No Design"
   Frame=58110   DesignProc="No Design"
   Frame=58111   DesignProc="No Design"
   Frame=58112   DesignProc="No Design"
   Frame=58113   DesignProc="No Design"
   Frame=58114   DesignProc="No Design"
   Frame=58115   DesignProc="No Design"
   Frame=58116   DesignProc="No Design"
   Frame=58117   DesignProc="No Design"
   Frame=58118   DesignProc="No Design"
   Frame=58119   DesignProc="No Design"
   Frame=58120   DesignProc="No Design"
   Frame=58121   DesignProc="No Design"
   Frame=58122   DesignProc="No Design"
   Frame=58123   DesignProc="No Design"
   Frame=58124   DesignProc="No Design"
   Frame=58125   DesignProc="No Design"
   Frame=58126   DesignProc="No Design"
   Frame=58127   DesignProc="No Design"
   Frame=58128   DesignProc="No Design"
   Frame=58129   DesignProc="No Design"
   Frame=58130   DesignProc="From Material"
   Frame=58131   DesignProc="From Material"
   Frame=58132   DesignProc="From Material"
   Frame=58133   DesignProc="From Material"
 
TABLE:  "FRAME LOAD TRANSFER OPTIONS"
   Frame=58057   Transfer=Yes
   Frame=58058   Transfer=Yes
   Frame=58059   Transfer=Yes
   Frame=58060   Transfer=Yes
   Frame=58061   Transfer=Yes
   Frame=58062   Transfer=Yes
   Frame=58063   Transfer=Yes
   Frame=58064   Transfer=Yes
   Frame=58065   Transfer=Yes
   Frame=58066   Transfer=Yes
   Frame=58067   Transfer=Yes
   Frame=58068   Transfer=Yes
   Frame=58069   Transfer=Yes
   Frame=58070   Transfer=Yes
   Frame=58071   Transfer=Yes
   Frame=58072   Transfer=Yes
   Frame=58073   Transfer=Yes
   Frame=58074   Transfer=Yes
   Frame=58075   Transfer=Yes
   Frame=58076   Transfer=Yes
# ... 57 like lines cut
 
TABLE:  "FRAME LOCAL AXES ASSIGNMENTS 1 - TYPICAL"
   Frame=58095   Angle=90
   Frame=58098   Angle=90
   Frame=58101   Angle=90
   Frame=58104   Angle=90
   Frame=58107   Angle=90
 
TABLE:  "FRAME OUTPUT STATION ASSIGNMENTS"
   Frame=58057   StationType=MaxStaSpcg   MaxStaSpcg=0.5   AddAtElmInt=Yes   AddAtPtLoad=Yes
   Frame=58058   StationType=MaxStaSpcg   MaxStaSpcg=0.5   AddAtElmInt=Yes   AddAtPtLoad=Yes
   Frame=58059   StationType=MaxStaSpcg   MaxStaSpcg=0.5   AddAtElmInt=Yes   AddAtPtLoad=Yes
   Frame=58060   StationType=MaxStaSpcg   MaxStaSpcg=0.5   AddAtElmInt=Yes   AddAtPtLoad=Yes
   Frame=58061   StationType=MaxStaSpcg   MaxStaSpcg=0.5   AddAtElmInt=Yes   AddAtPtLoad=Yes
   Frame=58062   StationType=MaxStaSpcg   MaxStaSpcg=0.5   AddAtElmInt=Yes   AddAtPtLoad=Yes
   Frame=58063   StationType=MaxStaSpcg   MaxStaSpcg=0.5   AddAtElmInt=Yes   AddAtPtLoad=Yes
   Frame=58064   StationType=MaxStaSpcg   MaxStaSpcg=0.5   AddAtElmInt=Yes   AddAtPtLoad=Yes
   Frame=58065   StationType=MaxStaSpcg   MaxStaSpcg=0.5   AddAtElmInt=Yes   AddAtPtLoad=Yes
   Frame=58066   StationType=MaxStaSpcg   MaxStaSpcg=0.5   AddAtElmInt=Yes   AddAtPtLoad=Yes
   Frame=58067   StationType=MaxStaSpcg   MaxStaSpcg=0.5   AddAtElmInt=Yes   AddAtPtLoad=Yes
   Frame=58068   StationType=MaxStaSpcg   MaxStaSpcg=0.5   AddAtElmInt=Yes   AddAtPtLoad=Yes
   Frame=58069   StationType=MaxStaSpcg   MaxStaSpcg=0.5   AddAtElmInt=Yes   AddAtPtLoad=Yes
   Frame=58070   StationType=MaxStaSpcg   MaxStaSpcg=0.5   AddAtElmInt=Yes   AddAtPtLoad=Yes
   Frame=58071   StationType=MaxStaSpcg   MaxStaSpcg=0.5   AddAtElmInt=Yes   AddAtPtLoad=Yes
   Frame=58072   StationType=MaxStaSpcg   MaxStaSpcg=0.5   AddAtElmInt=Yes   AddAtPtLoad=Yes
   Frame=58073   StationType=MaxStaSpcg   MaxStaSpcg=0.5   AddAtElmInt=Yes   AddAtPtLoad=Yes
   Frame=58074   StationType=MaxStaSpcg   MaxStaSpcg=0.5   AddAtElmInt=Yes   AddAtPtLoad=Yes
   Frame=58075   StationType=MaxStaSpcg   MaxStaSpcg=0.5   AddAtElmInt=Yes   AddAtPtLoad=Yes
   Frame=58076   StationType=MaxStaSpcg   MaxStaSpcg=0.5   AddAtElmInt=Yes   AddAtPtLoad=Yes
# ... 18 like lines cut
   Frame=58095   StationType=MinNumSta   MinNumSta=3   AddAtElmInt=Yes   AddAtPtLoad=Yes
   Frame=58096   StationType=MinNumSta   MinNumSta=3   AddAtElmInt=Yes   AddAtPtLoad=Yes
   Frame=58097   StationType=MinNumSta   MinNumSta=3   AddAtElmInt=Yes   AddAtPtLoad=Yes
   Frame=58098   StationType=MinNumSta   MinNumSta=3   AddAtElmInt=Yes   AddAtPtLoad=Yes
   Frame=58099   StationType=MinNumSta   MinNumSta=3   AddAtElmInt=Yes   AddAtPtLoad=Yes
   Frame=58100   StationType=MinNumSta   MinNumSta=3   AddAtElmInt=Yes   AddAtPtLoad=Yes
   Frame=58101   StationType=MinNumSta   MinNumSta=3   AddAtElmInt=Yes   AddAtPtLoad=Yes
   Frame=58102   StationType=MinNumSta   MinNumSta=3   AddAtElmInt=Yes   AddAtPtLoad=Yes
   Frame=58103   StationType=MinNumSta   MinNumSta=3   AddAtElmInt=Yes   AddAtPtLoad=Yes
   Frame=58104   StationType=MinNumSta   MinNumSta=3   AddAtElmInt=Yes   AddAtPtLoad=Yes
   Frame=58105   StationType=MinNumSta   MinNumSta=3   AddAtElmInt=Yes   AddAtPtLoad=Yes
   Frame=58106   StationType=MinNumSta   MinNumSta=3   AddAtElmInt=Yes   AddAtPtLoad=Yes
   Frame=58107   StationType=MinNumSta   MinNumSta=3   AddAtElmInt=Yes   AddAtPtLoad=Yes
   Frame=58108   StationType=MinNumSta   MinNumSta=3   AddAtElmInt=Yes   AddAtPtLoad=Yes
   Frame=58109   StationType=MinNumSta   MinNumSta=3   AddAtElmInt=Yes   AddAtPtLoad=Yes
   Frame=58110   StationType=MinNumSta   MinNumSta=3   AddAtElmInt=Yes   AddAtPtLoad=Yes
   Frame=58111   StationType=MinNumSta   MinNumSta=3   AddAtElmInt=Yes   AddAtPtLoad=Yes
   Frame=58112   StationType=MinNumSta   MinNumSta=3   AddAtElmInt=Yes   AddAtPtLoad=Yes
   Frame=58113   StationType=MinNumSta   MinNumSta=3   AddAtElmInt=Yes   AddAtPtLoad=Yes
   Frame=58114   StationType=MinNumSta   MinNumSta=3   AddAtElmInt=Yes   AddAtPtLoad=Yes
# ... 15 like lines cut
   Frame=58130   StationType=MaxStaSpcg   MaxStaSpcg=0.5   AddAtElmInt=Yes   AddAtPtLoad=Yes
   Frame=58131   StationType=MaxStaSpcg   MaxStaSpcg=0.5   AddAtElmInt=Yes   AddAtPtLoad=Yes
   Frame=58132   StationType=MaxStaSpcg   MaxStaSpcg=0.5   AddAtElmInt=Yes   AddAtPtLoad=Yes
   Frame=58133   StationType=MaxStaSpcg   MaxStaSpcg=0.5   AddAtElmInt=Yes   AddAtPtLoad=Yes
 
TABLE:  "FRAME SECTION ASSIGNMENTS"
   Frame=58057   AutoSelect=N.A.   AnalSect=TB   MatProp=Default
   Frame=58058   AutoSelect=N.A.   AnalSect=TB   MatProp=Default
   Frame=58059   AutoSelect=N.A.   AnalSect=TB   MatProp=Default
   Frame=58060   AutoSelect=N.A.   AnalSect=TB   MatProp=Default
   Frame=58061   AutoSelect=N.A.   AnalSect=TB   MatProp=Default
   Frame=58062   AutoSelect=N.A.   AnalSect=TB   MatProp=Default
   Frame=58063   AutoSelect=N.A.   AnalSect=TB   MatProp=Default
   Frame=58064   AutoSelect=N.A.   AnalSect=TB   MatProp=Default
   Frame=58065   AutoSelect=N.A.   AnalSect=TB   MatProp=Default
   Frame=58066   AutoSelect=N.A.   AnalSect=TB   MatProp=Default
   Frame=58067   AutoSelect=N.A.   AnalSect=TB   MatProp=Default
   Frame=58068   AutoSelect=N.A.   AnalSect=TB   MatProp=Default
   Frame=58069   AutoSelect=N.A.   AnalSect=TB   MatProp=Default
   Frame=58070   AutoSelect=N.A.   AnalSect=TB   MatProp=Default
   Frame=58071   AutoSelect=N.A.   AnalSect=TB   MatProp=Default
   Frame=58072   AutoSelect=N.A.   AnalSect=TB   MatProp=Default
   Frame=58073   AutoSelect=N.A.   AnalSect=TB   MatProp=Default
   Frame=58074   AutoSelect=N.A.   AnalSect=TB   MatProp=Default
   Frame=58075   AutoSelect=N.A.   AnalSect=TB   MatProp=Default
   Frame=58076   AutoSelect=N.A.   AnalSect=TB   MatProp=Default
   Frame=58077   AutoSelect=N.A.   AnalSect=LB   MatProp=Default
   Frame=58078   AutoSelect=N.A.   AnalSect=LB   MatProp=Default
   Frame=58079   AutoSelect=N.A.   AnalSect=LB   MatProp=Default
   Frame=58080   AutoSelect=N.A.   AnalSect=LB   MatProp=Default
   Frame=58081   AutoSelect=N.A.   AnalSect=LB   MatProp=Default
   Frame=58082   AutoSelect=N.A.   AnalSect=LB   MatProp=Default
   Frame=58083   AutoSelect=N.A.   AnalSect=LB   MatProp=Default
   Frame=58084   AutoSelect=N.A.   AnalSect=LB   MatProp=Default
   Frame=58085   AutoSelect=N.A.   AnalSect=LB   MatProp=Default
   Frame=58086   AutoSelect=N.A.   AnalSect=LB   MatProp=Default
   Frame=58087   AutoSelect=N.A.   AnalSect=LB   MatProp=Default
   Frame=58088   AutoSelect=N.A.   AnalSect=LB   MatProp=Default
   Frame=58089   AutoSelect=N.A.   AnalSect=LB   MatProp=Default
   Frame=58090   AutoSelect=N.A.   AnalSect=LB   MatProp=Default
   Frame=58091   AutoSelect=N.A.   AnalSect=LB   MatProp=Default
   Frame=58092   AutoSelect=N.A.   AnalSect=LB   MatProp=Default
   Frame=58093   AutoSelect=N.A.   AnalSect=LB   MatProp=Default
   Frame=58094   AutoSelect=N.A.   AnalSect=LB   MatProp=Default
   Frame=58095   AutoSelect=N.A.   AnalSect=EB   MatProp=Default
   Frame=58096   AutoSelect=N.A.   AnalSect=Piles   MatProp=Default
   Frame=58097   AutoSelect=N.A.   AnalSect=Piles   MatProp=Default
   Frame=58098   AutoSelect=N.A.   AnalSect=EB   MatProp=Default
   Frame=58099   AutoSelect=N.A.   AnalSect=Piles   MatProp=Default
   Frame=58100   AutoSelect=N.A.   AnalSect=Piles   MatProp=Default
   Frame=58101   AutoSelect=N.A.   AnalSect=EB   MatProp=Default
   Frame=58102   AutoSelect=N.A.   AnalSect=Piles   MatProp=Default
   Frame=58103   AutoSelect=N.A.   AnalSect=Piles   MatProp=Default
   Frame=58104   AutoSelect=N.A.   AnalSect=EB   MatProp=Default
   Frame=58105   AutoSelect=N.A.   AnalSect=Piles   MatProp=Default
   Frame=58106   AutoSelect=N.A.   AnalSect=Piles   MatProp=Default
   Frame=58107   AutoSelect=N.A.   AnalSect=EB   MatProp=Default
   Frame=58108   AutoSelect=N.A.   AnalSect=Piles   MatProp=Default
   Frame=58109   AutoSelect=N.A.   AnalSect=Piles   MatProp=Default
   Frame=58110   AutoSelect=N.A.   AnalSect=Piles   MatProp=Default
   Frame=58111   AutoSelect=N.A.   AnalSect=Piles   MatProp=Default
   Frame=58112   AutoSelect=N.A.   AnalSect=Piles   MatProp=Default
   Frame=58113   AutoSelect=N.A.   AnalSect=Piles   MatProp=Default
   Frame=58114   AutoSelect=N.A.   AnalSect=Piles   MatProp=Default
   Frame=58115   AutoSelect=N.A.   AnalSect=Piles   MatProp=Default
   Frame=58116   AutoSelect=N.A.   AnalSect=Piles   MatProp=Default
   Frame=58117   AutoSelect=N.A.   AnalSect=Piles   MatProp=Default
   Frame=58118   AutoSelect=N.A.   AnalSect=Piles   MatProp=Default
   Frame=58119   AutoSelect=N.A.   AnalSect=Piles   MatProp=Default
   Frame=58120   AutoSelect=N.A.   AnalSect=Piles   MatProp=Default
   Frame=58121   AutoSelect=N.A.   AnalSect=Piles   MatProp=Default
   Frame=58122   AutoSelect=N.A.   AnalSect=Piles   MatProp=Default
   Frame=58123   AutoSelect=N.A.   AnalSect=Piles   MatProp=Default
   Frame=58124   AutoSelect=N.A.   AnalSect=Piles   MatProp=Default
   Frame=58125   AutoSelect=N.A.   AnalSect=Piles   MatProp=Default
   Frame=58126   AutoSelect=N.A.   AnalSect=Piles   MatProp=Default
   Frame=58127   AutoSelect=N.A.   AnalSect=Piles   MatProp=Default
   Frame=58128   AutoSelect=N.A.   AnalSect=Piles   MatProp=Default
   Frame=58129   AutoSelect=N.A.   AnalSect=Piles   MatProp=Default
   Frame=58130   AutoSelect=N.A.   AnalSect=EB-1   MatProp=Default
   Frame=58131   AutoSelect=N.A.   AnalSect=EB-1   MatProp=Default
   Frame=58132   AutoSelect=N.A.   AnalSect=EB-1   MatProp=Default
   Frame=58133   AutoSelect=N.A.   AnalSect=EB-1   MatProp=Default
 
TABLE:  "FRAME SECTION PROPERTIES 01 - GENERAL"
   SectionName=EB   Material=BTCT   Shape=Rectangular   t3=1.2   t2=0.7   Area=0.84   TorsConst=0.087265516288098   I33=0.1008   I22=0.0343   I23=0   AS2=0.7   AS3=0.7   S33Top=0.168   S33Bot=0.168   S22Left=0.098   S22Right=0.098 _
        Z33=0.252   Z22=0.147   R33=0.346410161513775   R22=0.202072594216369   CGOffset3=0   CGOffset2=0   EccV2=0   EccV3=0   Cw=0   Color=Yellow   FromFile=No   AMod=1   A2Mod=1   A3Mod=1   JMod=1   I2Mod=1   I3Mod=1   MMod=1   WMod=1
   SectionName=EB-1   Material=BTCT   Shape=Rectangular   t3=0.7   t2=0.7   Area=0.49   TorsConst=0.0338140833333333   I33=0.0200083333333333   I22=0.0200083333333333   I23=0   AS2=0.408333333333333   AS3=0.408333333333333 _
        S33Top=0.0571666666666667   S33Bot=0.0571666666666667   S22Left=0.0571666666666667   S22Right=0.0571666666666667   Z33=0.08575   Z22=0.08575   R33=0.202072594216369   R22=0.202072594216369   CGOffset3=0   CGOffset2=0   EccV2=0 _
        EccV3=0   Cw=0   Color=Gray8Dark   FromFile=No   AMod=1   A2Mod=1   A3Mod=1   JMod=1   I2Mod=1   I3Mod=1   MMod=1   WMod=1
   SectionName=LB   Material=BTCT   Shape=Rectangular   t3=0.5   t2=0.7   Area=0.35   TorsConst=0.016326378765792   I33=0.00729166666666667   I22=0.0142916666666667   I23=0   AS2=0.291666666666667   AS3=0.291666666666667 _
        S33Top=0.0291666666666667   S33Bot=0.0291666666666667   S22Left=0.0408333333333333   S22Right=0.0408333333333333   Z33=0.04375   Z22=0.06125   R33=0.144337567297406   R22=0.202072594216369   CGOffset3=0   CGOffset2=0   EccV2=0 _
        EccV3=0   Cw=0   Color=Magenta   FromFile=No   AMod=1   A2Mod=1   A3Mod=1   JMod=1   I2Mod=1   I3Mod=1   MMod=1   WMod=1
   SectionName=Piles   Material=BTCTCOC   Shape=Pipe   t3=0.5   tw=0.08   Area=0.105557513160617   TorsConst=0.0048239783514402   I33=0.0024119891757201   I22=0.0024119891757201   I23=0   AS2=0.054040086087829   AS3=0.054040086087829 _
        S33Top=0.0096479567028804   S33Bot=0.0096479567028804   S22Left=0.0096479567028804   S22Right=0.0096479567028804   Z33=0.0142826666666667   Z22=0.0142826666666667   R33=0.15116216457831   R22=0.15116216457831   CGOffset3=0 _
        CGOffset2=0   EccV2=0   EccV3=0   Cw=0   Color=Blue   FromFile=No   AMod=1   A2Mod=1   A3Mod=1   JMod=1   I2Mod=1   I3Mod=1   MMod=1   WMod=1
   SectionName=TB   Material=BTCT   Shape=Rectangular   t3=0.5   t2=0.7   Area=0.35   TorsConst=0.016326378765792   I33=0.00729166666666667   I22=0.0142916666666667   I23=0   AS2=0.291666666666667   AS3=0.291666666666667 _
        S33Top=0.0291666666666667   S33Bot=0.0291666666666667   S22Left=0.0408333333333333   S22Right=0.0408333333333333   Z33=0.04375   Z22=0.06125   R33=0.144337567297406   R22=0.202072594216369   CGOffset3=0   CGOffset2=0   EccV2=0 _
        EccV3=0   Cw=0   Color=Red   FromFile=No   AMod=1   A2Mod=1   A3Mod=1   JMod=1   I2Mod=1   I3Mod=1   MMod=1   WMod=1
 
TABLE:  "FRAME SECTION PROPERTIES 02 - CONCRETE COLUMN"
   SectionName=EB   RebarMatL=A706   RebarMatC=A706   ReinfConfig=Rectangular   LatReinf=Ties   Cover=0.05   NumBars3Dir=2   NumBars2Dir=2   BarSizeL=12d   BarSizeC=10d   SpacingC=0.1   NumCBars2=2   NumCBars3=2   ReinfType=Design
   SectionName=EB-1   RebarMatL=A706   RebarMatC=A706   ReinfConfig=Rectangular   LatReinf=Ties   Cover=0.05   NumBars3Dir=2   NumBars2Dir=2   BarSizeL=12d   BarSizeC=10d   SpacingC=0.1   NumCBars2=2   NumCBars3=2   ReinfType=Design
   SectionName=LB   RebarMatL=A706   RebarMatC=A706   ReinfConfig=Rectangular   LatReinf=Ties   Cover=0.05   NumBars3Dir=2   NumBars2Dir=2   BarSizeL=12d   BarSizeC=10d   SpacingC=0.1   NumCBars2=2   NumCBars3=2   ReinfType=Design
   SectionName=TB   RebarMatL=A706   RebarMatC=A706   ReinfConfig=Rectangular   LatReinf=Ties   Cover=0.05   NumBars3Dir=2   NumBars2Dir=2   BarSizeL=12d   BarSizeC=10d   SpacingC=0.1   NumCBars2=2   NumCBars3=2   ReinfType=Design
 
TABLE:  "FRAME SECTION PROPERTIES 13 - TIME DEPENDENT"
   SectionName=EB   TypeSize=Auto   AutoSFSize=1
   SectionName=EB-1   TypeSize=Auto   AutoSFSize=1
   SectionName=LB   TypeSize=Auto   AutoSFSize=1
   SectionName=Piles   TypeSize=Auto   AutoSFSize=1
   SectionName=TB   TypeSize=Auto   AutoSFSize=1
 
TABLE:  "FUNCTION - PLOT FUNCTIONS"
   PlotFunc="Input Energy"   Type=Energy   Component=Input   Mode=All
 
TABLE:  "FUNCTION - POWER SPECTRAL DENSITY - USER"
   Name=UNIFPSD   Frequency=0   Value=1
   Name=UNIFPSD   Frequency=1   Value=1
 
TABLE:  "FUNCTION - RESPONSE SPECTRUM - USER"
   Name=UNIFRS   Period=0   Accel=1   FuncDamp=0.05
   Name=UNIFRS   Period=1   Accel=1
 
TABLE:  "FUNCTION - STEADY STATE - USER"
   Name=UNIFSS   Frequency=0   Value=1
   Name=UNIFSS   Frequency=1   Value=1
 
TABLE:  "FUNCTION - TIME HISTORY - USER"
   Name=RAMPTH   Time=0   Value=0
   Name=RAMPTH   Time=1   Value=1
   Name=RAMPTH   Time=4   Value=1
   Name=UNIFTH   Time=0   Value=1
   Name=UNIFTH   Time=1   Value=1
 
TABLE:  "GRID LINES"
   CoordSys=GLOBAL   AxisDir=X   GridID=A   XRYZCoord=-10   LineType=Primary   LineColor=Gray8Dark   Visible=Yes   BubbleLoc=End   AllVisible=Yes   BubbleSize=0.9375
   CoordSys=GLOBAL   AxisDir=X   GridID=B   XRYZCoord=-9   LineType=Primary   LineColor=Gray8Dark   Visible=Yes   BubbleLoc=End
   CoordSys=GLOBAL   AxisDir=X   GridID=C   XRYZCoord=-4.5   LineType=Primary   LineColor=Gray8Dark   Visible=Yes   BubbleLoc=End
   CoordSys=GLOBAL   AxisDir=X   GridID=D   XRYZCoord=0   LineType=Primary   LineColor=Gray8Dark   Visible=Yes   BubbleLoc=End
   CoordSys=GLOBAL   AxisDir=X   GridID=E   XRYZCoord=4.5   LineType=Primary   LineColor=Gray8Dark   Visible=Yes   BubbleLoc=End
   CoordSys=GLOBAL   AxisDir=X   GridID=F   XRYZCoord=9   LineType=Primary   LineColor=Gray8Dark   Visible=Yes   BubbleLoc=End
   CoordSys=GLOBAL   AxisDir=X   GridID=G   XRYZCoord=10   LineType=Primary   LineColor=Gray8Dark   Visible=Yes   BubbleLoc=End
   CoordSys=GLOBAL   AxisDir=Y   GridID=1   XRYZCoord=-5.2   LineType=Primary   LineColor=Gray8Dark   Visible=Yes   BubbleLoc=Start
   CoordSys=GLOBAL   AxisDir=Y   GridID=2   XRYZCoord=-4.2   LineType=Primary   LineColor=Gray8Dark   Visible=Yes   BubbleLoc=Start
   CoordSys=GLOBAL   AxisDir=Y   GridID=3   XRYZCoord=0   LineType=Primary   LineColor=Gray8Dark   Visible=Yes   BubbleLoc=Start
   CoordSys=GLOBAL   AxisDir=Y   GridID=4   XRYZCoord=4.2   LineType=Primary   LineColor=Gray8Dark   Visible=Yes   BubbleLoc=Start
   CoordSys=GLOBAL   AxisDir=Y   GridID=5   XRYZCoord=4.8   LineType=Primary   LineColor=Gray8Dark   Visible=Yes   BubbleLoc=Start
   CoordSys=GLOBAL   AxisDir=Z   GridID=Z1   XRYZCoord=0   LineType=Primary   LineColor=Gray8Dark   Visible=Yes   BubbleLoc=End
   CoordSys=GLOBAL   AxisDir=Z   GridID=Z2   XRYZCoord=13   LineType=Primary   LineColor=Gray8Dark   Visible=Yes   BubbleLoc=End
 
TABLE:  "GROUPS 1 - DEFINITIONS"
   GroupName=ALL   Selection=Yes   SectionCut=Yes   Steel=Yes   Concrete=Yes   Aluminum=Yes   ColdFormed=Yes   Stage=Yes   Bridge=Yes   AutoSeismic=No   AutoWind=No   SelDesSteel=No   SelDesAlum=No   SelDesCold=No   MassWeight=Yes   Color=Red
   GroupName=Pile   Selection=Yes   SectionCut=Yes   Steel=Yes   Concrete=Yes   Aluminum=Yes   ColdFormed=Yes   Stage=Yes   Bridge=Yes   AutoSeismic=No   AutoWind=No   SelDesSteel=No   SelDesAlum=No   SelDesCold=No   MassWeight=Yes   Color=Gray8Dark
   GroupName=DN   Selection=Yes   SectionCut=Yes   Steel=Yes   Concrete=Yes   Aluminum=Yes   ColdFormed=Yes   Stage=Yes   Bridge=Yes   AutoSeismic=No   AutoWind=No   SelDesSteel=No   SelDesAlum=No   SelDesCold=No   MassWeight=Yes   Color=Yellow
   GroupName=Pile_Toe   Selection=Yes   SectionCut=Yes   Steel=Yes   Concrete=Yes   Aluminum=Yes   ColdFormed=Yes   Stage=Yes   Bridge=Yes   AutoSeismic=No   AutoWind=No   SelDesSteel=No   SelDesAlum=No   SelDesCold=No   MassWeight=Yes   Color=Green
   GroupName=Pile_Bend   Selection=Yes   SectionCut=Yes   Steel=Yes   Concrete=Yes   Aluminum=Yes   ColdFormed=Yes   Stage=Yes   Bridge=Yes   AutoSeismic=No   AutoWind=No   SelDesSteel=No   SelDesAlum=No   SelDesCold=No   MassWeight=Yes   Color=Cyan
   GroupName=Beam   Selection=Yes   SectionCut=Yes   Steel=Yes   Concrete=Yes   Aluminum=Yes   ColdFormed=Yes   Stage=Yes   Bridge=Yes   AutoSeismic=No   AutoWind=No   SelDesSteel=No   SelDesAlum=No   SelDesCold=No   MassWeight=Yes   Color=Blue
   GroupName=Piles   Selection=Yes   SectionCut=Yes   Steel=Yes   Concrete=Yes   Aluminum=Yes   ColdFormed=Yes   Stage=Yes   Bridge=Yes   AutoSeismic=No   AutoWind=No   SelDesSteel=No   SelDesAlum=No   SelDesCold=No   MassWeight=Yes   Color=Green
   GroupName=Beams   Selection=Yes   SectionCut=Yes   Steel=Yes   Concrete=Yes   Aluminum=Yes   ColdFormed=Yes   Stage=Yes   Bridge=Yes   AutoSeismic=No   AutoWind=No   SelDesSteel=No   SelDesAlum=No   SelDesCold=No   MassWeight=Yes   Color=Cyan
 
TABLE:  "GROUPS 2 - ASSIGNMENTS"
 
TABLE:  "JOINT COORDINATES"
   Joint=52863   CoordSys=GLOBAL   CoordType=Cartesian   XorR=-8.4   Y=-5   Z=0   SpecialJt=No   GUID=fdeb9d72-418f-4f24-a0e3-306cd9c89b19
   Joint=52864   CoordSys=GLOBAL   CoordType=Cartesian   XorR=-8.4   Y=-4.1   Z=0   SpecialJt=No   GUID=16655622-a73e-4684-bdcf-b95797c03eb7
   Joint=52865   CoordSys=GLOBAL   CoordType=Cartesian   XorR=-4.2   Y=-5   Z=0   SpecialJt=No   GUID=bd9ae6b7-c2d8-471a-81c7-0b4be6cc66ea
   Joint=52866   CoordSys=GLOBAL   CoordType=Cartesian   XorR=-4.2   Y=-4.1   Z=0   SpecialJt=No   GUID=11521759-7b1b-43e4-8005-95623fad6bf1
   Joint=52867   CoordSys=GLOBAL   CoordType=Cartesian   XorR=0   Y=-5   Z=0   SpecialJt=No   GUID=9cf9980f-5c75-4e81-a2e1-89698e661ac9
   Joint=52868   CoordSys=GLOBAL   CoordType=Cartesian   XorR=0   Y=-4.1   Z=0   SpecialJt=No   GUID=c6183f36-68d5-4680-beba-203fd6eb94e5
   Joint=52869   CoordSys=GLOBAL   CoordType=Cartesian   XorR=4.2   Y=-5   Z=0   SpecialJt=No   GUID=f21a8810-5c82-4fba-9af7-10dbe3e44e4a
   Joint=52870   CoordSys=GLOBAL   CoordType=Cartesian   XorR=4.2   Y=-4.1   Z=0   SpecialJt=No   GUID=4ae1484d-108f-456d-8202-936103a7850b
   Joint=52871   CoordSys=GLOBAL   CoordType=Cartesian   XorR=8.4   Y=-5   Z=0   SpecialJt=No   GUID=cfc78b9c-a748-44b6-bbfd-620cb7021dbe
   Joint=52872   CoordSys=GLOBAL   CoordType=Cartesian   XorR=8.4   Y=-4.1   Z=0   SpecialJt=No   GUID=5ae00922-012c-4c55-8e12-37caae97986e
   Joint=52873   CoordSys=GLOBAL   CoordType=Cartesian   XorR=-8.4   Y=0   Z=0   SpecialJt=No   GUID=f0167d28-9bb4-4a40-8241-e89d16f9fe62
   Joint=52874   CoordSys=GLOBAL   CoordType=Cartesian   XorR=-4.2   Y=0   Z=0   SpecialJt=No   GUID=4fb195af-897b-4d7c-99fb-55866229700a
   Joint=52875   CoordSys=GLOBAL   CoordType=Cartesian   XorR=0   Y=0   Z=0   SpecialJt=No   GUID=499a4471-953b-42fa-b591-f68db3fdab12
   Joint=52876   CoordSys=GLOBAL   CoordType=Cartesian   XorR=4.2   Y=0   Z=0   SpecialJt=No   GUID=bf1ed12e-9b7d-4ece-b8aa-d484976c3f61
   Joint=52877   CoordSys=GLOBAL   CoordType=Cartesian   XorR=8.4   Y=0   Z=0   SpecialJt=No   GUID=1bbc3d57-47a4-446a-8711-cfeae5bbb0bd
   Joint=52878   CoordSys=GLOBAL   CoordType=Cartesian   XorR=-8.4   Y=4.1   Z=0   SpecialJt=No   GUID=24c3b544-18c9-4579-8e81-b1f2ff581850
   Joint=52879   CoordSys=GLOBAL   CoordType=Cartesian   XorR=-4.2   Y=4.1   Z=0   SpecialJt=No   GUID=676e64b2-96dc-4156-8ea1-c65cb773d156
   Joint=52880   CoordSys=GLOBAL   CoordType=Cartesian   XorR=0   Y=4.1   Z=0   SpecialJt=No   GUID=af4fa528-8083-41b0-8bf1-deff30c97c37
   Joint=52881   CoordSys=GLOBAL   CoordType=Cartesian   XorR=4.2   Y=4.1   Z=0   SpecialJt=No   GUID=a29ea1cf-d6fa-4f34-8920-eee713ade790
   Joint=52882   CoordSys=GLOBAL   CoordType=Cartesian   XorR=8.4   Y=4.1   Z=0   SpecialJt=No   GUID=61e10c02-9744-4f12-9b5d-30c278af7126
   Joint=52883   CoordSys=GLOBAL   CoordType=Cartesian   XorR=-8.4   Y=5   Z=0   SpecialJt=No   GUID=713638e0-7c47-4430-a183-b8f5992f799a
   Joint=52884   CoordSys=GLOBAL   CoordType=Cartesian   XorR=-4.2   Y=5   Z=0   SpecialJt=No   GUID=239fbfa5-db4d-49c3-9a3f-79b330e7f5b1
   Joint=52885   CoordSys=GLOBAL   CoordType=Cartesian   XorR=0   Y=5   Z=0   SpecialJt=No   GUID=c29555b4-061b-44d1-ba7f-d91cccd38fb5
   Joint=52886   CoordSys=GLOBAL   CoordType=Cartesian   XorR=4.2   Y=5   Z=0   SpecialJt=No   GUID=e57443fe-a6aa-4eb5-a695-cc0412d31044
   Joint=52887   CoordSys=GLOBAL   CoordType=Cartesian   XorR=8.4   Y=5   Z=0   SpecialJt=No   GUID=bb2cd92c-5231-40f0-b480-4b68cd9043ee
   Joint=52888   CoordSys=GLOBAL   CoordType=Cartesian   XorR=-10   Y=-4.1   Z=0   SpecialJt=No   GUID=03a49314-4c8a-4ac1-b243-f104a3714829
   Joint=52889   CoordSys=GLOBAL   CoordType=Cartesian   XorR=-10   Y=0   Z=0   SpecialJt=No   GUID=17103921-6553-492d-810f-24493357ab49
   Joint=52890   CoordSys=GLOBAL   CoordType=Cartesian   XorR=-10   Y=4.1   Z=0   SpecialJt=No   GUID=1ce93f23-c3af-403d-80bd-f1f7f649ca0d
   Joint=52891   CoordSys=GLOBAL   CoordType=Cartesian   XorR=10   Y=-4.1   Z=0   SpecialJt=No   GUID=9fd460d2-cad9-44aa-900c-8e784890ebb4
   Joint=52892   CoordSys=GLOBAL   CoordType=Cartesian   XorR=10   Y=0   Z=0   SpecialJt=No   GUID=d13a6dfb-6645-44fc-a889-a5390642b014
   Joint=52893   CoordSys=GLOBAL   CoordType=Cartesian   XorR=10   Y=4.1   Z=0   SpecialJt=No   GUID=afba65e5-d5b3-44c9-82ee-7a34664ece59
   Joint=52894   CoordSys=GLOBAL   CoordType=Cartesian   XorR=-8.4   Y=-4.1   Z=-3   SpecialJt=No   GUID=3ef744e8-e063-407c-b5ca-743498dd035f
   Joint=52895   CoordSys=GLOBAL   CoordType=Cartesian   XorR=-8.4   Y=-4.1   Z=-14.4449607588658   SpecialJt=No   GUID=7385f4c8-63f8-4658-bca1-2f40031f3ea4
   Joint=52896   CoordSys=GLOBAL   CoordType=Cartesian   XorR=-8.4   Y=-4.1   Z=-16   SpecialJt=No   GUID=e0a2c88a-5fb9-42b4-a2c1-d66a3ff6085a
   Joint=52897   CoordSys=GLOBAL   CoordType=Cartesian   XorR=-4.2   Y=-4.1   Z=-3   SpecialJt=No   GUID=921b75cd-5b7f-4240-803d-644b586d4b89
   Joint=52898   CoordSys=GLOBAL   CoordType=Cartesian   XorR=-4.2   Y=-4.1   Z=-14.4449607588658   SpecialJt=No   GUID=ebb51fc1-b990-40b3-8415-a06cc40a76fe
   Joint=52899   CoordSys=GLOBAL   CoordType=Cartesian   XorR=-4.2   Y=-4.1   Z=-16   SpecialJt=No   GUID=fdf81a77-ae04-4a38-a9f9-8d664a55b5d5
   Joint=52900   CoordSys=GLOBAL   CoordType=Cartesian   XorR=0   Y=-4.1   Z=-3   SpecialJt=No   GUID=7734324e-bf61-4bb6-b5d7-5b2323ad358a
   Joint=52901   CoordSys=GLOBAL   CoordType=Cartesian   XorR=0   Y=-4.1   Z=-14.4449607588658   SpecialJt=No   GUID=e6cf6399-a5d2-4b6f-9d2e-a7b3013b5818
   Joint=52902   CoordSys=GLOBAL   CoordType=Cartesian   XorR=0   Y=-4.1   Z=-16   SpecialJt=No   GUID=15fa2d41-ca99-4471-824e-95ea278f89e9
   Joint=52903   CoordSys=GLOBAL   CoordType=Cartesian   XorR=4.2   Y=-4.1   Z=-3   SpecialJt=No   GUID=398d5fec-4faa-483f-a2ec-76425eccd7e6
   Joint=52904   CoordSys=GLOBAL   CoordType=Cartesian   XorR=4.2   Y=-4.1   Z=-14.4449607588658   SpecialJt=No   GUID=0eb04fce-139d-4896-bd6a-7583f02db0c6
   Joint=52905   CoordSys=GLOBAL   CoordType=Cartesian   XorR=4.2   Y=-4.1   Z=-16   SpecialJt=No   GUID=756e998d-c17c-4d0b-9a7b-13afacad3177
   Joint=52906   CoordSys=GLOBAL   CoordType=Cartesian   XorR=8.4   Y=-4.1   Z=-3   SpecialJt=No   GUID=7cb729a9-51a5-4154-8dba-e643672a17aa
   Joint=52907   CoordSys=GLOBAL   CoordType=Cartesian   XorR=8.4   Y=-4.1   Z=-14.4449607588658   SpecialJt=No   GUID=6cf752e5-a662-403e-826d-ab549a5b9d3e
   Joint=52908   CoordSys=GLOBAL   CoordType=Cartesian   XorR=8.4   Y=-4.1   Z=-16   SpecialJt=No   GUID=3d84361a-0fae-4dfe-8ac1-b15c2ccd8b50
   Joint=52909   CoordSys=GLOBAL   CoordType=Cartesian   XorR=-8.4   Y=0   Z=-14.4449607588658   SpecialJt=No   GUID=71eabb9a-e70f-47fb-afb2-6d2f65f7c8d3
   Joint=52910   CoordSys=GLOBAL   CoordType=Cartesian   XorR=-8.4   Y=0   Z=-16   SpecialJt=No   GUID=60ab7d70-6bef-4e72-a9b2-1e3c7c731c6f
   Joint=52911   CoordSys=GLOBAL   CoordType=Cartesian   XorR=-4.2   Y=0   Z=-14.4449607588658   SpecialJt=No   GUID=281781bb-d61a-4deb-bbaf-d470e99e5d8b
   Joint=52912   CoordSys=GLOBAL   CoordType=Cartesian   XorR=-4.2   Y=0   Z=-16   SpecialJt=No   GUID=f8351c9c-248b-49aa-b6c0-47277f87e237
   Joint=52913   CoordSys=GLOBAL   CoordType=Cartesian   XorR=0   Y=0   Z=-14.4449607588658   SpecialJt=No   GUID=90cfed65-ccba-42e0-be37-f06dc982e94a
   Joint=52914   CoordSys=GLOBAL   CoordType=Cartesian   XorR=0   Y=0   Z=-16   SpecialJt=No   GUID=64c25a07-a7e3-41cc-bbea-1ba69618e9fd
   Joint=52915   CoordSys=GLOBAL   CoordType=Cartesian   XorR=4.2   Y=0   Z=-14.4449607588658   SpecialJt=No   GUID=9f7778ab-13ae-4ea9-b9ee-d5e132eea06f
   Joint=52916   CoordSys=GLOBAL   CoordType=Cartesian   XorR=4.2   Y=0   Z=-16   SpecialJt=No   GUID=2ac1e568-3cae-44ea-9058-9ec686502d1f
   Joint=52917   CoordSys=GLOBAL   CoordType=Cartesian   XorR=8.4   Y=0   Z=-14.4449607588658   SpecialJt=No   GUID=c946744b-4821-4e50-917d-9ec9baeb7abb
   Joint=52918   CoordSys=GLOBAL   CoordType=Cartesian   XorR=8.4   Y=0   Z=-16   SpecialJt=No   GUID=ceb2af38-9823-4144-a061-726a6ce57134
   Joint=52919   CoordSys=GLOBAL   CoordType=Cartesian   XorR=-8.4   Y=4.1   Z=-14.4449607588658   SpecialJt=No   GUID=d98ea9ed-1d75-4f23-92d8-992b61dac617
   Joint=52920   CoordSys=GLOBAL   CoordType=Cartesian   XorR=-8.4   Y=4.1   Z=-16   SpecialJt=No   GUID=ffcdb992-5554-496b-93d3-81f423120811
   Joint=52921   CoordSys=GLOBAL   CoordType=Cartesian   XorR=-4.2   Y=4.1   Z=-14.4449607588658   SpecialJt=No   GUID=2f9857db-e036-49cd-a5b1-d381172e6911
   Joint=52922   CoordSys=GLOBAL   CoordType=Cartesian   XorR=-4.2   Y=4.1   Z=-16   SpecialJt=No   GUID=bd37c1ae-fe5e-4f97-a108-2cc1216cf74d
   Joint=52923   CoordSys=GLOBAL   CoordType=Cartesian   XorR=0   Y=4.1   Z=-14.4449607588658   SpecialJt=No   GUID=edbc4a09-04a8-4e72-83cc-76e45e02624a
   Joint=52924   CoordSys=GLOBAL   CoordType=Cartesian   XorR=0   Y=4.1   Z=-16   SpecialJt=No   GUID=79931007-dc23-4eaa-aec2-793a17030505
   Joint=52925   CoordSys=GLOBAL   CoordType=Cartesian   XorR=4.2   Y=4.1   Z=-14.4449607588658   SpecialJt=No   GUID=30454aee-17bd-44a8-9d2f-5b5d3ab7af41
   Joint=52926   CoordSys=GLOBAL   CoordType=Cartesian   XorR=4.2   Y=4.1   Z=-16   SpecialJt=No   GUID=acb091b1-6b7b-4aa1-9cfa-61fdf8c31b1d
   Joint=52927   CoordSys=GLOBAL   CoordType=Cartesian   XorR=8.4   Y=4.1   Z=-14.4449607588658   SpecialJt=No   GUID=a8be15c4-1969-4fb0-8908-efccbebcb7f1
   Joint=52928   CoordSys=GLOBAL   CoordType=Cartesian   XorR=8.4   Y=4.1   Z=-16   SpecialJt=No   GUID=29613de5-8cfa-4526-bd53-41f5cddcca73
   Joint=52929   CoordSys=GLOBAL   CoordType=Cartesian   XorR=-10   Y=-5   Z=0   SpecialJt=No   GUID=76f87d78-9041-4cd4-bf53-41a2a8cb94a0
   Joint=52930   CoordSys=GLOBAL   CoordType=Cartesian   XorR=10   Y=-5   Z=0   SpecialJt=No   GUID=cb7e198b-450c-4050-aa11-505e0247a711
   Joint=52931   CoordSys=GLOBAL   CoordType=Cartesian   XorR=-10   Y=5   Z=0   SpecialJt=No   GUID=23a4edab-d6e8-4004-90b1-5fc310bf1fdd
   Joint=52932   CoordSys=GLOBAL   CoordType=Cartesian   XorR=10   Y=5   Z=0   SpecialJt=No   GUID=6fb23da0-33f5-4522-a13a-7d889dbf4715
 
TABLE:  "JOINT PATTERN DEFINITIONS"
   Pattern=Default
 
TABLE:  "JOINT RESTRAINT ASSIGNMENTS"
   Joint=52895   U1=Yes   U2=Yes   U3=No   R1=Yes   R2=Yes   R3=Yes
   Joint=52896   U1=No   U2=No   U3=Yes   R1=No   R2=No   R3=No
   Joint=52898   U1=Yes   U2=Yes   U3=No   R1=Yes   R2=Yes   R3=Yes
   Joint=52899   U1=No   U2=No   U3=Yes   R1=No   R2=No   R3=No
   Joint=52901   U1=Yes   U2=Yes   U3=No   R1=Yes   R2=Yes   R3=Yes
   Joint=52902   U1=No   U2=No   U3=Yes   R1=No   R2=No   R3=No
   Joint=52904   U1=Yes   U2=Yes   U3=No   R1=Yes   R2=Yes   R3=Yes
   Joint=52905   U1=No   U2=No   U3=Yes   R1=No   R2=No   R3=No
   Joint=52907   U1=Yes   U2=Yes   U3=No   R1=Yes   R2=Yes   R3=Yes
   Joint=52908   U1=No   U2=No   U3=Yes   R1=No   R2=No   R3=No
   Joint=52909   U1=Yes   U2=Yes   U3=No   R1=Yes   R2=Yes   R3=Yes
   Joint=52910   U1=No   U2=No   U3=Yes   R1=No   R2=No   R3=No
   Joint=52911   U1=Yes   U2=Yes   U3=No   R1=Yes   R2=Yes   R3=Yes
   Joint=52912   U1=No   U2=No   U3=Yes   R1=No   R2=No   R3=No
   Joint=52913   U1=Yes   U2=Yes   U3=No   R1=Yes   R2=Yes   R3=Yes
   Joint=52914   U1=No   U2=No   U3=Yes   R1=No   R2=No   R3=No
   Joint=52915   U1=Yes   U2=Yes   U3=No   R1=Yes   R2=Yes   R3=Yes
   Joint=52916   U1=No   U2=No   U3=Yes   R1=No   R2=No   R3=No
   Joint=52917   U1=Yes   U2=Yes   U3=No   R1=Yes   R2=Yes   R3=Yes
   Joint=52918   U1=No   U2=No   U3=Yes   R1=No   R2=No   R3=No
   Joint=52919   U1=Yes   U2=Yes   U3=No   R1=Yes   R2=Yes   R3=Yes
   Joint=52920   U1=No   U2=No   U3=Yes   R1=No   R2=No   R3=No
   Joint=52921   U1=Yes   U2=Yes   U3=No   R1=Yes   R2=Yes   R3=Yes
   Joint=52922   U1=No   U2=No   U3=Yes   R1=No   R2=No   R3=No
   Joint=52923   U1=Yes   U2=Yes   U3=No   R1=Yes   R2=Yes   R3=Yes
   Joint=52924   U1=No   U2=No   U3=Yes   R1=No   R2=No   R3=No
   Joint=52925   U1=Yes   U2=Yes   U3=No   R1=Yes   R2=Yes   R3=Yes
   Joint=52926   U1=No   U2=No   U3=Yes   R1=No   R2=No   R3=No
   Joint=52927   U1=Yes   U2=Yes   U3=No   R1=Yes   R2=Yes   R3=Yes
   Joint=52928   U1=No   U2=No   U3=Yes   R1=No   R2=No   R3=No
 
TABLE:  "LOAD CASE DEFINITIONS"
   Case=DEAD   Type=LinStatic   InitialCond=Zero   DesTypeOpt="Prog Det"   DesignType=Dead   DesActOpt="Prog Det"   DesignAct=Non-Composite   AutoType=None   RunCase=Yes
   Case=MODAL   Type=LinModal   InitialCond=Zero   DesTypeOpt="Prog Det"   DesignType=Other   DesActOpt="Prog Det"   DesignAct=Other   AutoType=None   RunCase=Yes
   Case=LL   Type=LinStatic   InitialCond=Zero   DesTypeOpt="Prog Det"   DesignType=Live   DesActOpt="Prog Det"   DesignAct="Short-Term Composite"   AutoType=None   RunCase=Yes
 
TABLE:  "LOAD PATTERN DEFINITIONS"
   LoadPat=DEAD   DesignType=Dead   SelfWtMult=1
   LoadPat=LL   DesignType=Live   SelfWtMult=0
 
TABLE:  "MASS SOURCE"
   MassSource=MSSSRC1   Elements=Yes   Masses=Yes   Loads=No   IsDefault=Yes
 
TABLE:  "MATERIAL PROPERTIES 01 - GENERAL"
   Material=A706   Type=Rebar   SymType=Uniaxial   TempDepend=No   Color=Gray8Dark   GUID=30185aab-1311-4f4b-9ffe-ddad707d22d9   Notes="ASTM A706 added 8/23/2025 4:27:57 PM"
   Material=BTCT   Type=Concrete   SymType=Isotropic   TempDepend=No   Color=Blue   Notes="Concrete added 24-Feb-23 16:30:01"
   Material=BTCTCOC   Type=Concrete   SymType=Isotropic   TempDepend=No   Color=Blue   Notes="Concrete added 24-Feb-23 16:30:01"
   Material=Steel   Type=Steel   SymType=Isotropic   TempDepend=No   Color=Magenta   GUID=2f952889-4898-4964-97a4-5fb5c5008d33   Notes="Steel added 8/24/2025 2:51:43 PM"
   Material=Tendon   Type=Tendon   SymType=Uniaxial   TempDepend=No   Color=Yellow   GUID=7dfcd093-823e-4b3a-b96f-35d5bcaf456f   Notes="Tendon added 8/24/2025 2:51:43 PM"
 
TABLE:  "MATERIAL PROPERTIES 02 - BASIC MECHANICAL PROPERTIES"
   Material=A706   UnitWeight=7.84904757236607   UnitMass=0.800380070686609   E1=20389019.1580383   A1=1.16999994421006E-05
   Material=BTCT   UnitWeight=2.40276966501002   UnitMass=0.245014307353044   E1=2900000   G12=1208333.33333333   U12=0.2   A1=9.9E-06
   Material=BTCTCOC   UnitWeight=2.40276966501002   UnitMass=0.245014307353044   E1=3800000000   G12=1583333333.33333   U12=0.2   A1=9.9E-06
   Material=Steel   UnitWeight=7.84904757236607   UnitMass=0.800380070686609   E1=20389019.1580383   G12=7841930.44539935   U12=0.3   A1=1.17E-05
   Material=Tendon   UnitWeight=7.84904757236607   UnitMass=0.800380070686609   E1=20037484.3449687   A1=1.16999994421006E-05
 
TABLE:  "MATERIAL PROPERTIES 03A - STEEL DATA"
   Material=Steel   Fy=35153.4813069626   Fu=45699.5256990514   EffFy=38668.8294376589   EffFu=50269.4782689565   SSCurveOpt=Simple   SSHysType=Kinematic   SHard=0.015   SMax=0.11   SRup=0.17   FinalSlope=-0.1   CoupModType="Von Mises"
 
TABLE:  "MATERIAL PROPERTIES 03B - CONCRETE DATA"
   Material=BTCT   Fc=2812.27850455701   eFc=2812.27850455701   LtWtConc=No   SSCurveOpt=Mander   SSHysType=Takeda   SFc=0.002   SCap=0.005   FinalSlope=-0.1   FAngle=0   DAngle=0   CoupModType="Modified Darwin-Pecknold"
   Material=BTCTCOC   Fc=2812.27850455701   eFc=2812.27850455701   LtWtConc=No   SSCurveOpt=Mander   SSHysType=Takeda   SFc=0.002   SCap=0.005   FinalSlope=-0.1   FAngle=0   DAngle=0   CoupModType="Modified Darwin-Pecknold"
 
TABLE:  "MATERIAL PROPERTIES 03E - REBAR DATA"
   Material=A706   Fy=42184.1775683551   Fu=56245.5700911402   EffFy=46402.5953251907   EffFu=61870.1271002542   SSCurveOpt=Simple   SSHysType=Kinematic   SHard=0.011   SCap=0.11   FinalSlope=-0.1   UseCTDef=No   CoupModType="Von Mises"
 
TABLE:  "MATERIAL PROPERTIES 03F - TENDON DATA"
   Material=Tendon   Fy=172322.365366731   Fu=189828.799057598   SSCurveOpt="270 ksi"   SSHysType=Kinematic   FinalSlope=-0.1   CoupModType="Von Mises"
 
TABLE:  "MATERIAL PROPERTIES 03J - COUPLED NONLINEAR VON MISES DATA"
   Material=A706   YieldStress=46402.5953251907   LinIsoHard=No   LinKinHard=No   NLIsoSaHard=No
   Material=Steel   YieldStress=38668.8294376589   LinIsoHard=No   LinKinHard=No   NLIsoSaHard=No
   Material=Tendon   YieldStress=172322.365366731   LinIsoHard=No   LinKinHard=No   NLIsoSaHard=No
 
TABLE:  "MATERIAL PROPERTIES 06 - DAMPING PARAMETERS"
   Material=A706   ModalRatio=0   VisMass=0   VisStiff=0   HysMass=0   HysStiff=0
   Material=BTCT   ModalRatio=0   VisMass=0   VisStiff=0   HysMass=0   HysStiff=0
   Material=BTCTCOC   ModalRatio=0   VisMass=0   VisStiff=0   HysMass=0   HysStiff=0
   Material=Steel   ModalRatio=0   VisMass=0   VisStiff=0   HysMass=0   HysStiff=0
   Material=Tendon   ModalRatio=0   VisMass=0   VisStiff=0   HysMass=0   HysStiff=0
 
TABLE:  "MATERIAL PROPERTIES 09 - ACCEPTANCE CRITERIA"
   Material=A706   IOTens=0.01   LSTens=0.02   CPTens=0.05   IOComp=-0.005   LSComp=-0.01   CPComp=-0.02
   Material=BTCT   IOTens=0.01   LSTens=0.02   CPTens=0.05   IOComp=-0.003   LSComp=-0.006   CPComp=-0.015   IgnoreTens=Yes
   Material=BTCTCOC   IOTens=0.01   LSTens=0.02   CPTens=0.05   IOComp=-0.003   LSComp=-0.006   CPComp=-0.015   IgnoreTens=Yes
   Material=Steel   IOTens=0.01   LSTens=0.02   CPTens=0.05   IOComp=-0.005   LSComp=-0.01   CPComp=-0.02
   Material=Tendon   IOTens=0.015   LSTens=0.023   CPTens=0.03   IOComp=-0.015   LSComp=-0.023   CPComp=-0.03
 
TABLE:  "OPTIONS - COLORS - DISPLAY"
   DeviceType=Screen   Points=Blue   LinesFrame=Blue   LinesFrmDL=Blue   LinesCable=Green   LinesTendon=Green   SpringLinks=Green   Restraints=Green   Releases=Green   Axes=Cyan   Text=Black   ShadowLines=Gray8Dark   GuideLines=Gray8Dark _
        Highlight=Red   Selection=10504778   AreaFillBot=Red   AreaFillTop=16744703   AreaFillSd=Red   AreaEdge=DarkRed   SolidF1=Red   SolidF2=Blue   SolidF3=Green   SolidF4=Yellow   SolidF5=White   SolidF6=Cyan   SolidEdge=DarkRed _
        Floor=Gray4   Background=White   BGLowLeft=White   BGLowRight=White   BGUpRight=White   Darkness=0.5
   DeviceType=Printer   Points=Gray8Dark   LinesFrame=Black   LinesFrmDL=Gray4   LinesCable=Black   LinesTendon=Black   SpringLinks=Gray8Dark   Restraints=Gray8Dark   Releases=Gray4   Axes=Black   Text=Black   ShadowLines=Gray4 _
        GuideLines=Gray4   Highlight=Black   Selection=Black   AreaFillBot=Gray4   AreaFillTop=Gray8Dark   AreaFillSd=Gray4   AreaEdge=Black   SolidF1=Gray1Light   SolidF2=Gray2   SolidF3=Gray3   SolidF4=Gray4   SolidF5=Gray5 _
        SolidF6=Gray6   SolidEdge=Black   Floor=Gray4   Background=White   BGLowLeft=White   BGLowRight=White   BGUpRight=White   Darkness=0.5
   DeviceType="Color Printer"   Points=Blue   LinesFrame=Blue   LinesFrmDL=Blue   LinesCable=Green   LinesTendon=Green   SpringLinks=Green   Restraints=Green   Releases=Green   Axes=Cyan   Text=Black   ShadowLines=Gray8Dark _
        GuideLines=Gray8Dark   Highlight=Red   Selection=10504778   AreaFillBot=Red   AreaFillTop=16744703   AreaFillSd=Red   AreaEdge=DarkRed   SolidF1=Red   SolidF2=Blue   SolidF3=Green   SolidF4=Yellow   SolidF5=White   SolidF6=Cyan _
        SolidEdge=DarkRed   Floor=Gray4   Background=White   BGLowLeft=White   BGLowRight=White   BGUpRight=White   Darkness=0.5
 
TABLE:  "OPTIONS - COLORS - OUTPUT"
   DeviceType=Screen   Contour1=13107400   Contour2=6553828   Contour3=Red   Contour4=16639   Contour5=Orange   Contour6=43775   Contour7=54527   Contour8=Yellow   Contour9=65408   Contour10=Green   Contour11=8453888   Contour12=Cyan _
        Contour13=16755200   Contour14=16733440   Contour15=Blue   Transpare=0.5   Ratio1=Cyan   Ratio2=Green   Ratio3=Yellow   Ratio4=Orange   Ratio5=Red   RatioNotD=Gray4   RatioNotC=Red   RatioVal1=0.5   RatioVal2=0.7   RatioVal3=0.9 _
        RatioVal4=1   DFillPos=Blue   DFillNeg=Red   DFillRPos=Green   DFillRNeg=Green
   DeviceType=Printer   Contour1=Black   Contour2=3158064   Contour3=4210752   Contour4=5263440   Contour5=6316128   Contour6=7368816   Contour7=Gray8Dark   Contour8=Gray7   Contour9=Gray6   Contour10=Gray5   Contour11=Gray4 _
        Contour12=Gray3   Contour13=Gray2   Contour14=Gray1Light   Contour15=White   Transpare=0   Ratio1=Gray2   Ratio2=Gray4   Ratio3=Gray8Dark   Ratio4=4210752   Ratio5=Black   RatioNotD=Gray4   RatioNotC=Black   RatioVal1=0.5 _
        RatioVal2=0.7   RatioVal3=0.9   RatioVal4=1   DFillPos=Gray8Dark   DFillNeg=Gray8Dark   DFillRPos=4210752   DFillRNeg=4210752
   DeviceType="Color Printer"   Contour1=13107400   Contour2=6553828   Contour3=Red   Contour4=16639   Contour5=Orange   Contour6=43775   Contour7=54527   Contour8=Yellow   Contour9=65408   Contour10=Green   Contour11=8453888 _
        Contour12=Cyan   Contour13=16755200   Contour14=16733440   Contour15=Blue   Transpare=0   Ratio1=Cyan   Ratio2=Green   Ratio3=Yellow   Ratio4=Orange   Ratio5=Red   RatioNotD=Gray4   RatioNotC=Red   RatioVal1=0.5   RatioVal2=0.7 _
        RatioVal3=0.9   RatioVal4=1   DFillPos=Blue   DFillNeg=Red   DFillRPos=Green   DFillRNeg=Green
 
TABLE:  "OVERWRITES - CONCRETE DESIGN - CSA-A233-14"
   Frame=58057   DesignSect="Program Determined"   FrameType="Program Determined"   RLLF=0   XLMajor=0   XLMinor=0   XKMajor=0   XKMinor=0   CmMajor=0   CmMinor=0   DbMajor=0   DbMinor=0   DsMajor=0   DsMinor=0   Rd=0   Ro=0   MaxAggSize=0
   Frame=58058   DesignSect="Program Determined"   FrameType="Program Determined"   RLLF=0   XLMajor=0   XLMinor=0   XKMajor=0   XKMinor=0   CmMajor=0   CmMinor=0   DbMajor=0   DbMinor=0   DsMajor=0   DsMinor=0   Rd=0   Ro=0   MaxAggSize=0
   Frame=58059   DesignSect="Program Determined"   FrameType="Program Determined"   RLLF=0   XLMajor=0   XLMinor=0   XKMajor=0   XKMinor=0   CmMajor=0   CmMinor=0   DbMajor=0   DbMinor=0   DsMajor=0   DsMinor=0   Rd=0   Ro=0   MaxAggSize=0
   Frame=58060   DesignSect="Program Determined"   FrameType="Program Determined"   RLLF=0   XLMajor=0   XLMinor=0   XKMajor=0   XKMinor=0   CmMajor=0   CmMinor=0   DbMajor=0   DbMinor=0   DsMajor=0   DsMinor=0   Rd=0   Ro=0   MaxAggSize=0
   Frame=58061   DesignSect="Program Determined"   FrameType="Program Determined"   RLLF=0   XLMajor=0   XLMinor=0   XKMajor=0   XKMinor=0   CmMajor=0   CmMinor=0   DbMajor=0   DbMinor=0   DsMajor=0   DsMinor=0   Rd=0   Ro=0   MaxAggSize=0
   Frame=58062   DesignSect="Program Determined"   FrameType="Program Determined"   RLLF=0   XLMajor=0   XLMinor=0   XKMajor=0   XKMinor=0   CmMajor=0   CmMinor=0   DbMajor=0   DbMinor=0   DsMajor=0   DsMinor=0   Rd=0   Ro=0   MaxAggSize=0
   Frame=58063   DesignSect="Program Determined"   FrameType="Program Determined"   RLLF=0   XLMajor=0   XLMinor=0   XKMajor=0   XKMinor=0   CmMajor=0   CmMinor=0   DbMajor=0   DbMinor=0   DsMajor=0   DsMinor=0   Rd=0   Ro=0   MaxAggSize=0
   Frame=58064   DesignSect="Program Determined"   FrameType="Program Determined"   RLLF=0   XLMajor=0   XLMinor=0   XKMajor=0   XKMinor=0   CmMajor=0   CmMinor=0   DbMajor=0   DbMinor=0   DsMajor=0   DsMinor=0   Rd=0   Ro=0   MaxAggSize=0
   Frame=58065   DesignSect="Program Determined"   FrameType="Program Determined"   RLLF=0   XLMajor=0   XLMinor=0   XKMajor=0   XKMinor=0   CmMajor=0   CmMinor=0   DbMajor=0   DbMinor=0   DsMajor=0   DsMinor=0   Rd=0   Ro=0   MaxAggSize=0
   Frame=58066   DesignSect="Program Determined"   FrameType="Program Determined"   RLLF=0   XLMajor=0   XLMinor=0   XKMajor=0   XKMinor=0   CmMajor=0   CmMinor=0   DbMajor=0   DbMinor=0   DsMajor=0   DsMinor=0   Rd=0   Ro=0   MaxAggSize=0
   Frame=58067   DesignSect="Program Determined"   FrameType="Program Determined"   RLLF=0   XLMajor=0   XLMinor=0   XKMajor=0   XKMinor=0   CmMajor=0   CmMinor=0   DbMajor=0   DbMinor=0   DsMajor=0   DsMinor=0   Rd=0   Ro=0   MaxAggSize=0
   Frame=58068   DesignSect="Program Determined"   FrameType="Program Determined"   RLLF=0   XLMajor=0   XLMinor=0   XKMajor=0   XKMinor=0   CmMajor=0   CmMinor=0   DbMajor=0   DbMinor=0   DsMajor=0   DsMinor=0   Rd=0   Ro=0   MaxAggSize=0
   Frame=58069   DesignSect="Program Determined"   FrameType="Program Determined"   RLLF=0   XLMajor=0   XLMinor=0   XKMajor=0   XKMinor=0   CmMajor=0   CmMinor=0   DbMajor=0   DbMinor=0   DsMajor=0   DsMinor=0   Rd=0   Ro=0   MaxAggSize=0
   Frame=58070   DesignSect="Program Determined"   FrameType="Program Determined"   RLLF=0   XLMajor=0   XLMinor=0   XKMajor=0   XKMinor=0   CmMajor=0   CmMinor=0   DbMajor=0   DbMinor=0   DsMajor=0   DsMinor=0   Rd=0   Ro=0   MaxAggSize=0
   Frame=58071   DesignSect="Program Determined"   FrameType="Program Determined"   RLLF=0   XLMajor=0   XLMinor=0   XKMajor=0   XKMinor=0   CmMajor=0   CmMinor=0   DbMajor=0   DbMinor=0   DsMajor=0   DsMinor=0   Rd=0   Ro=0   MaxAggSize=0
   Frame=58072   DesignSect="Program Determined"   FrameType="Program Determined"   RLLF=0   XLMajor=0   XLMinor=0   XKMajor=0   XKMinor=0   CmMajor=0   CmMinor=0   DbMajor=0   DbMinor=0   DsMajor=0   DsMinor=0   Rd=0   Ro=0   MaxAggSize=0
   Frame=58073   DesignSect="Program Determined"   FrameType="Program Determined"   RLLF=0   XLMajor=0   XLMinor=0   XKMajor=0   XKMinor=0   CmMajor=0   CmMinor=0   DbMajor=0   DbMinor=0   DsMajor=0   DsMinor=0   Rd=0   Ro=0   MaxAggSize=0
   Frame=58074   DesignSect="Program Determined"   FrameType="Program Determined"   RLLF=0   XLMajor=0   XLMinor=0   XKMajor=0   XKMinor=0   CmMajor=0   CmMinor=0   DbMajor=0   DbMinor=0   DsMajor=0   DsMinor=0   Rd=0   Ro=0   MaxAggSize=0
   Frame=58075   DesignSect="Program Determined"   FrameType="Program Determined"   RLLF=0   XLMajor=0   XLMinor=0   XKMajor=0   XKMinor=0   CmMajor=0   CmMinor=0   DbMajor=0   DbMinor=0   DsMajor=0   DsMinor=0   Rd=0   Ro=0   MaxAggSize=0
   Frame=58076   DesignSect="Program Determined"   FrameType="Program Determined"   RLLF=0   XLMajor=0   XLMinor=0   XKMajor=0   XKMinor=0   CmMajor=0   CmMinor=0   DbMajor=0   DbMinor=0   DsMajor=0   DsMinor=0   Rd=0   Ro=0   MaxAggSize=0
# ... 27 like lines cut
 
TABLE:  "PREFERENCES - ALUMINUM DESIGN - AA 2015"
   THDesign=Envelopes   SRatioLimit=1   Provision=ASD   LatFact=1.33333333333333   UseLatFact=No   Bridge=No   OmegaTy=1.65   OmegaTr=1.95   OmegaC=1.65   OmegaBo=1.65   OmegaBr=1.95   OmegaVo=1.65   OmegaVr=1.95
 
TABLE:  "PREFERENCES - COLD FORMED DESIGN - AISI-ASD96"
   THDesign=Envelopes   FrameType="Braced Frame"   SRatioLimit=1   MaxIter=1   OmegaBS=1.67   OmegaBUS=1.67   OmegaBLTB=1.67   OmegaVS=1.67   OmegaVNS=1.5   OmegaT=1.67   OmegaC=1.8
 
TABLE:  "PREFERENCES - CONCRETE DESIGN - CSA-A233-14"
   THDesign=Envelopes   NumCurves=24   NumPoints=11   MinEccen=Yes   BCCDesign=Yes   CTorsion=Yes   PatLLF=0.75   UFLimit=0.95   PhiS=0.85   PhiC=0.65
 
TABLE:  "PREFERENCES - CONCRETE SHELL DESIGN - EUROCODE 2-2004"
   Country="CEN Default"   GammaS=1.15   GammaC=1.5   AlphaCC=1
 
TABLE:  "PREFERENCES - DIMENSIONAL"
   MergeTol=0.001   FineGrid=0.25   Nudge=0.25   SelectTol=3   SnapTol=12   SLineThick=1   PLineThick=4   MaxFont=8   MinFont=3   AutoZoom=10   ShrinkFact=70   TextFileLen=240
 
TABLE:  "PREFERENCES - STEEL DESIGN - AISC 360-10"
   THDesign=Envelopes   FrameType=SMF   PatLLF=0.75   SRatioLimit=0.95   MaxIter=1   SDC=D   SeisCode=No   SeisLoad=No   ImpFactor=1   SystemRho=1   SystemSds=0.5   SystemR=8   SystemCd=5.5   Omega0=3   Provision=LRFD _
        AMethod="Direct Analysis"   SOMethod="General 2nd Order"   SRMethod="Tau-b Fixed"   NLCoeff=0.002   PhiB=0.9   PhiC=0.9   PhiTY=0.9   PhiTF=0.75   PhiV=0.9   PhiVRolledI=1   PhiVT=0.9   PlugWeld=Yes   HSSWelding=ERW   HSSReduceT=No _
        CheckDefl=No   DLRat=120   SDLAndLLRat=120   LLRat=360   TotalRat=240   NetRat=240
 
TABLE:  "PROGRAM CONTROL"
   ProgramName=SAP2000   Version=24.0.0   CurrUnits="Tonf, m, C"   SteelCode="AISC 360-10"   ConcCode="CSA A23.3-14"   AlumCode="AA 2015"   ColdCode=AISI-ASD96   RegenHinge=Yes
 
TABLE:  "PROJECT INFORMATION"
   Item="Company Name"   Data=po
   Item="Client Name"
   Item="Project Name"
   Item="Project Number"
   Item="Model Name"
   Item="Model Description"
   Item="Revision Number"
   Item="Frame Type"
   Item=Engineer
   Item=Checker
   Item=Supervisor
   Item="Issue Code"
   Item="Design Code"
 
TABLE:  "REBAR SIZES"
   RebarID=#2   Area=3.2258E-05   Diameter=0.00635
   RebarID=#3   Area=7.09675996154547E-05   Diameter=0.009525
   RebarID=#4   Area=0.000129032001922727   Diameter=0.0127
   RebarID=#5   Area=0.000199999601538181   Diameter=0.015875
   RebarID=#6   Area=0.000283870398461819   Diameter=0.01905
   RebarID=#7   Area=0.000387096015381813   Diameter=0.022225
   RebarID=#8   Area=0.000509676413843632   Diameter=0.0254
   RebarID=#9   Area=0.00064516   Diameter=0.0286512005329132
   RebarID=#10   Area=0.00081935318769455   Diameter=0.0322579995155334
   RebarID=#11   Area=0.00100644956308365   Diameter=0.0358139991521835
   RebarID=#14   Area=0.00145161   Diameter=0.0430021989583969
   RebarID=#18   Area=0.00258064   Diameter=0.0573277992248535
   RebarID=10M   Area=0.000100000004162606   Diameter=0.0113000003604438
   RebarID=15M   Area=0.000200000008325212   Diameter=0.0160000002402959
   RebarID=20M   Area=0.000300000012487818   Diameter=0.0195000002928606
   RebarID=25M   Area=0.000500000020813031   Diameter=0.0252000011414055
   RebarID=30M   Area=0.000700000029138243   Diameter=0.0299000000675832
   RebarID=35M   Area=0.00100000004162606   Diameter=0.0357000012990997
   RebarID=45M   Area=0.00150000006243909   Diameter=0.0437000014192476
   RebarID=55M   Area=0.00250000010406515   Diameter=0.056400002372922
   RebarID=6d   Area=2.83000004150781E-05   Diameter=0.00600000009011096
   RebarID=8d   Area=5.03000013308514E-05   Diameter=0.00800000012014795
   RebarID=10d   Area=7.85000032676458E-05   Diameter=0.0100000001501849
   RebarID=12d   Area=0.000113000004703745   Diameter=0.0120000001802219
   RebarID=14d   Area=0.000154000006410413   Diameter=0.0140000002102589
   RebarID=16d   Area=0.000201000008366838   Diameter=0.0160000002402959
   RebarID=20d   Area=0.000314000013070583   Diameter=0.0200000003003699
   RebarID=25d   Area=0.000491000020438396   Diameter=0.0250000003754623
   RebarID=26d   Area=0.000531000022103439   Diameter=0.0260000003904808
   RebarID=28d   Area=0.000616000025641654   Diameter=0.0280000004205178
   RebarID=N12   Area=0.000113000004703745   Diameter=0.0120000001802219
   RebarID=N16   Area=0.000201000008366838   Diameter=0.0160000002402959
   RebarID=N20   Area=0.000314000013070583   Diameter=0.0200000003003699
   RebarID=N24   Area=0.00045200001881498   Diameter=0.0240000003604438
   RebarID=N28   Area=0.000616000025641654   Diameter=0.0280000004205178
   RebarID=N32   Area=0.000804000033467353   Diameter=0.0320000004805918
   RebarID=N36   Area=0.00102000004245858   Diameter=0.0360000005406658
 
TABLE:  "SOLID PROPERTY DEFINITIONS"
   SolidProp=Solid1   Material=BTCT   MatAngleA=0   MatAngleB=0   MatAngleC=0   InComp=Yes   Color=Gray8Dark
 
END TABLE DATA
