File D:\ResearchLab\02_Projects\02_Projects\Tap chi XD_SFOA\code\SOO_MPJ\MPJ_Sap\SOO_Cost_W10\MPJ_10.$2k was saved on m/d/yy at h:mm:ss
 
TABLE:  "ACTIVE DEGREES OF FREEDOM"
   UX=Yes   UY=Yes   UZ=Yes   RX=Yes   RY=Yes   RZ=Yes
 
TABLE:  "ANALYSIS OPTIONS"
   Solver=Advanced   SolverProc=Auto   Force32Bit=No   StiffCase=None   GeomMod=None   HingeOpt="In Elements"   NumAThreads=0   MaxFileSize=0   NumDThreads=0   NumRThreads=0   UseMMFiles="Program Determined"   AllowDiff=No
 
TABLE:  "AREA AUTO MESH ASSIGNMENTS"
   Area=155012   MeshType="Number of Elements"   MeshGroup=ALL   Number1=3   Number2=3   LocalEdge=No   LocalFace=No   SuppEdge=No   SuppFace=No   SubMesh=No
   Area=155013   MeshType="Number of Elements"   MeshGroup=ALL   Number1=3   Number2=3   LocalEdge=No   LocalFace=No   SuppEdge=No   SuppFace=No   SubMesh=No
   Area=155014   MeshType="Number of Elements"   MeshGroup=ALL   Number1=3   Number2=3   LocalEdge=No   LocalFace=No   SuppEdge=No   SuppFace=No   SubMesh=No
   Area=155015   MeshType="Number of Elements"   MeshGroup=ALL   Number1=3   Number2=3   LocalEdge=No   LocalFace=No   SuppEdge=No   SuppFace=No   SubMesh=No
   Area=155016   MeshType="Number of Elements"   MeshGroup=ALL   Number1=3   Number2=3   LocalEdge=No   LocalFace=No   SuppEdge=No   SuppFace=No   SubMesh=No
   Area=155017   MeshType="Number of Elements"   MeshGroup=ALL   Number1=3   Number2=3   LocalEdge=No   LocalFace=No   SuppEdge=No   SuppFace=No   SubMesh=No
   Area=155018   MeshType="Number of Elements"   MeshGroup=ALL   Number1=3   Number2=3   LocalEdge=No   LocalFace=No   SuppEdge=No   SuppFace=No   SubMesh=No
   Area=155019   MeshType="Number of Elements"   MeshGroup=ALL   Number1=3   Number2=3   LocalEdge=No   LocalFace=No   SuppEdge=No   SuppFace=No   SubMesh=No
   Area=155020   MeshType="Number of Elements"   MeshGroup=ALL   Number1=3   Number2=3   LocalEdge=No   LocalFace=No   SuppEdge=No   SuppFace=No   SubMesh=No
   Area=155021   MeshType="Number of Elements"   MeshGroup=ALL   Number1=3   Number2=3   LocalEdge=No   LocalFace=No   SuppEdge=No   SuppFace=No   SubMesh=No
   Area=155022   MeshType="Number of Elements"   MeshGroup=ALL   Number1=3   Number2=3   LocalEdge=No   LocalFace=No   SuppEdge=No   SuppFace=No   SubMesh=No
   Area=155023   MeshType="Number of Elements"   MeshGroup=ALL   Number1=3   Number2=3   LocalEdge=No   LocalFace=No   SuppEdge=No   SuppFace=No   SubMesh=No
   Area=155024   MeshType="Number of Elements"   MeshGroup=ALL   Number1=3   Number2=3   LocalEdge=No   LocalFace=No   SuppEdge=No   SuppFace=No   SubMesh=No
   Area=155025   MeshType="Number of Elements"   MeshGroup=ALL   Number1=3   Number2=3   LocalEdge=No   LocalFace=No   SuppEdge=No   SuppFace=No   SubMesh=No
   Area=155026   MeshType="Number of Elements"   MeshGroup=ALL   Number1=3   Number2=3   LocalEdge=No   LocalFace=No   SuppEdge=No   SuppFace=No   SubMesh=No
   Area=155027   MeshType="Number of Elements"   MeshGroup=ALL   Number1=3   Number2=3   LocalEdge=No   LocalFace=No   SuppEdge=No   SuppFace=No   SubMesh=No
   Area=155028   MeshType="Number of Elements"   MeshGroup=ALL   Number1=3   Number2=3   LocalEdge=No   LocalFace=No   SuppEdge=No   SuppFace=No   SubMesh=No
   Area=155029   MeshType="Number of Elements"   MeshGroup=ALL   Number1=3   Number2=3   LocalEdge=No   LocalFace=No   SuppEdge=No   SuppFace=No   SubMesh=No
   Area=155030   MeshType="Number of Elements"   MeshGroup=ALL   Number1=3   Number2=3   LocalEdge=No   LocalFace=No   SuppEdge=No   SuppFace=No   SubMesh=No
   Area=155031   MeshType="Number of Elements"   MeshGroup=ALL   Number1=3   Number2=3   LocalEdge=No   LocalFace=No   SuppEdge=No   SuppFace=No   SubMesh=No
# ... 4 like lines cut
 
TABLE:  "AREA LOADS - UNIFORM"
   Area=155012   LoadPat=LL   CoordSys=GLOBAL   Dir=Gravity   UnifLoad=1.00034158457019
   Area=155013   LoadPat=LL   CoordSys=GLOBAL   Dir=Gravity   UnifLoad=1.00034158457019
   Area=155014   LoadPat=LL   CoordSys=GLOBAL   Dir=Gravity   UnifLoad=1.00034158457019
   Area=155015   LoadPat=LL   CoordSys=GLOBAL   Dir=Gravity   UnifLoad=1.00034158457019
   Area=155016   LoadPat=LL   CoordSys=GLOBAL   Dir=Gravity   UnifLoad=1.00034158457019
   Area=155017   LoadPat=LL   CoordSys=GLOBAL   Dir=Gravity   UnifLoad=1.00034158457019
   Area=155018   LoadPat=LL   CoordSys=GLOBAL   Dir=Gravity   UnifLoad=1.00034158457019
   Area=155019   LoadPat=LL   CoordSys=GLOBAL   Dir=Gravity   UnifLoad=1.00034158457019
   Area=155020   LoadPat=LL   CoordSys=GLOBAL   Dir=Gravity   UnifLoad=1.00034158457019
   Area=155021   LoadPat=LL   CoordSys=GLOBAL   Dir=Gravity   UnifLoad=1.00034158457019
   Area=155022   LoadPat=LL   CoordSys=GLOBAL   Dir=Gravity   UnifLoad=1.00034158457019
   Area=155023   LoadPat=LL   CoordSys=GLOBAL   Dir=Gravity   UnifLoad=1.00034158457019
   Area=155024   LoadPat=LL   CoordSys=GLOBAL   Dir=Gravity   UnifLoad=1.00034158457019
   Area=155025   LoadPat=LL   CoordSys=GLOBAL   Dir=Gravity   UnifLoad=1.00034158457019
   Area=155026   LoadPat=LL   CoordSys=GLOBAL   Dir=Gravity   UnifLoad=1.00034158457019
   Area=155027   LoadPat=LL   CoordSys=GLOBAL   Dir=Gravity   UnifLoad=1.00034158457019
   Area=155028   LoadPat=LL   CoordSys=GLOBAL   Dir=Gravity   UnifLoad=1.00034158457019
   Area=155029   LoadPat=LL   CoordSys=GLOBAL   Dir=Gravity   UnifLoad=1.00034158457019
   Area=155030   LoadPat=LL   CoordSys=GLOBAL   Dir=Gravity   UnifLoad=1.00034158457019
   Area=155031   LoadPat=LL   CoordSys=GLOBAL   Dir=Gravity   UnifLoad=1.00034158457019
# ... 4 like lines cut
 
TABLE:  "AREA SECTION ASSIGNMENTS"
   Area=155012   Section=Deck   MatProp=Default
   Area=155013   Section=Deck   MatProp=Default
   Area=155014   Section=Deck   MatProp=Default
   Area=155015   Section=Deck   MatProp=Default
   Area=155016   Section=Deck   MatProp=Default
   Area=155017   Section=Deck   MatProp=Default
   Area=155018   Section=Deck   MatProp=Default
   Area=155019   Section=Deck   MatProp=Default
   Area=155020   Section=Deck   MatProp=Default
   Area=155021   Section=Deck   MatProp=Default
   Area=155022   Section=Deck   MatProp=Default
   Area=155023   Section=Deck   MatProp=Default
   Area=155024   Section=Deck   MatProp=Default
   Area=155025   Section=Deck   MatProp=Default
   Area=155026   Section=Deck   MatProp=Default
   Area=155027   Section=Deck   MatProp=Default
   Area=155028   Section=Deck   MatProp=Default
   Area=155029   Section=Deck   MatProp=Default
   Area=155030   Section=Deck   MatProp=Default
   Area=155031   Section=Deck   MatProp=Default
# ... 4 like lines cut
 
TABLE:  "AREA SECTION PROPERTIES"
   Section=Deck   Material=BTCT   MatAngle=0   AreaType=Shell   Type=Shell-Thin   DrillDOF=Yes   Thickness=0.3   BendThick=0.3   Color=Green   F11Mod=1   F22Mod=1   F12Mod=1   M11Mod=1   M22Mod=1   M12Mod=1   V13Mod=1   V23Mod=1   MMod=1 _
        WMod=1   Notes="Added 24-Feb-23 16:56:47"
 
TABLE:  "AREA SECTION PROPERTY DESIGN PARAMETERS"
   Section=Deck   RebarMat=None   RebarOpt=Default
 
TABLE:  "AREA SECTION PROPERTY - TIME DEPENDENT"
   Section=Deck   TypeSize=User   AutoSFSize=1   UserValSize=0.1
 
TABLE:  "AUTO COMBINATION OPTION DATA 01 - GENERAL"
   DesignType=Concrete   AutoGen=Yes
 
TABLE:  "AUTO COMBINATION OPTION DATA 02 - USER DATA"
   DesignType=Concrete   LSType=Strength   LCName=DEAD
   DesignType=Concrete   LSType=Strength   LCName=LL
 
TABLE:  "AUTO WAVE 3 - WAVE CHARACTERISTICS - GENERAL"
   WaveChar=Default   WaveType="From Theory"   KinFactor=1   SWaterDepth=45   WaveHeight=18   WavePeriod=12   WaveTheory=Linear
 
TABLE:  "CASE - MODAL 1 - GENERAL"
   Case=MODAL   ModeType=Eigen   MaxNumModes=12   MinNumModes=1   EigenShift=0   EigenCutoff=0   EigenTol=1E-09   AutoShift=Yes
 
TABLE:  "CASE - STATIC 1 - LOAD ASSIGNMENTS"
   Case=DEAD   LoadType="Load pattern"   LoadName=DEAD   LoadSF=1
   Case=LL   LoadType="Load pattern"   LoadName=LL   LoadSF=1
 
TABLE:  "COMBINATION DEFINITIONS"
   ComboName=COMB1   ComboType="Linear Add"   AutoDesign=No   CaseName=DEAD   ScaleFactor=1   SteelDesign=None   ConcDesign=Strength   AlumDesign=None   ColdDesign=None
   ComboName=COMB2   ComboType="Linear Add"   AutoDesign=No   CaseName=DEAD   ScaleFactor=1   SteelDesign=None   ConcDesign=Strength   AlumDesign=None   ColdDesign=None
   ComboName=COMB2   CaseName=LL   ScaleFactor=1
   ComboName=BAO   ComboType=Envelope   AutoDesign=No   CaseName=COMB1   ScaleFactor=1   SteelDesign=None   ConcDesign=Strength   AlumDesign=None   ColdDesign=None
   ComboName=BAO   CaseName=COMB2   ScaleFactor=1
   ComboName=DCON1   ComboType="Linear Add"   AutoDesign=Yes   CaseName=DEAD   ScaleFactor=1.4   SteelDesign=None   ConcDesign=Strength   AlumDesign=None   ColdDesign=None   GUID=bb4fff9a-98b5-44d1-9fde-34d92700a8e9   Notes="Dead Only; Strength"
   ComboName=DCON2   ComboType="Linear Add"   AutoDesign=Yes   CaseName=DEAD   ScaleFactor=1.25   SteelDesign=None   ConcDesign=Strength   AlumDesign=None   ColdDesign=None   GUID=505bcda7-6fac-4dd0-b03e-c591d1ffc6ce   Notes="Dead + Live; Strength"
   ComboName=DCON2   CaseName=LL   ScaleFactor=1.5
 
TABLE:  "CONNECTIVITY - AREA"
   Area=155012   Joint1=453999   Joint2=453960   Joint3=453933   Joint4=453932   GUID=c8c74475-a0b8-4d93-af60-2866827206d8
   Area=155013   Joint1=453932   Joint2=453933   Joint3=453935   Joint4=453934   GUID=98526618-5b0a-485d-b2e2-193a3c314fdd
   Area=155014   Joint1=453934   Joint2=453935   Joint3=453937   Joint4=453936   GUID=2a0f9cde-0968-425c-a747-7acb93f225e7
   Area=155015   Joint1=453936   Joint2=453937   Joint3=453939   Joint4=453938   GUID=0c693415-9fb0-4e74-bf32-d520cbfe0071
   Area=155016   Joint1=453938   Joint2=453939   Joint3=453941   Joint4=453940   GUID=98d7f3f2-6d82-4359-be00-2cd8d39b6c35
   Area=155017   Joint1=453940   Joint2=453941   Joint3=453943   Joint4=453942   GUID=78b54832-fe20-4317-86fd-8285e2edd5e4
   Area=155018   Joint1=453942   Joint2=453943   Joint3=453945   Joint4=453944   GUID=65751868-f61b-46e3-ace7-49565dd81ab1
   Area=155019   Joint1=453944   Joint2=453945   Joint3=453962   Joint4=454000   GUID=33aa9b18-61e3-4a2e-823c-82218b028aa8
   Area=155020   Joint1=453960   Joint2=453961   Joint3=453946   Joint4=453933   GUID=d54db634-d20b-47c6-b42b-8a5b9f955f6f
   Area=155021   Joint1=453933   Joint2=453946   Joint3=453947   Joint4=453935   GUID=00bf0b29-bb5e-4fa6-a2e3-b1b0708cfa42
   Area=155022   Joint1=453935   Joint2=453947   Joint3=453948   Joint4=453937   GUID=5f2dffca-126a-4099-b69d-329ccc2640aa
   Area=155023   Joint1=453937   Joint2=453948   Joint3=453949   Joint4=453939   GUID=ace5be07-b423-49b7-b6a9-3b3ca3318cd6
   Area=155024   Joint1=453939   Joint2=453949   Joint3=453950   Joint4=453941   GUID=7390fbaf-2de6-4fd0-a993-ca34349ca478
   Area=155025   Joint1=453941   Joint2=453950   Joint3=453951   Joint4=453943   GUID=8a4fd89c-ac33-425e-bb56-068effe77b2f
   Area=155026   Joint1=453943   Joint2=453951   Joint3=453952   Joint4=453945   GUID=cfa85879-9e26-485a-ab0a-ed773d041ecb
   Area=155027   Joint1=453945   Joint2=453952   Joint3=453963   Joint4=453962   GUID=3c54ff18-6623-4a03-94bd-8170560698e3
   Area=155028   Joint1=453961   Joint2=454001   Joint3=453953   Joint4=453946   GUID=c47acb0c-2249-4bb0-8a43-cb35668e63e7
   Area=155029   Joint1=453946   Joint2=453953   Joint3=453954   Joint4=453947   GUID=3a4fb107-69ae-4aa9-b83a-289e248b8a18
   Area=155030   Joint1=453947   Joint2=453954   Joint3=453955   Joint4=453948   GUID=1ded5f83-106a-4894-a515-c7c76b960ab5
   Area=155031   Joint1=453948   Joint2=453955   Joint3=453956   Joint4=453949   GUID=9c40466c-3cf3-4844-b989-fdaef8ac7bd1
   Area=155032   Joint1=453949   Joint2=453956   Joint3=453957   Joint4=453950   GUID=252319db-2451-42a8-965d-e5e26c0dd7fc
   Area=155033   Joint1=453950   Joint2=453957   Joint3=453958   Joint4=453951   GUID=ca8c44ab-9e03-4dbb-a456-fe7784c7e1aa
   Area=155034   Joint1=453951   Joint2=453958   Joint3=453959   Joint4=453952   GUID=8e04d9b6-21a7-4947-a4fc-bdd6990e2db3
   Area=155035   Joint1=453952   Joint2=453959   Joint3=454002   Joint4=453963   GUID=726617b2-31f8-4798-b69e-6d0dea2160b1
 
TABLE:  "CONNECTIVITY - FRAME"
   Frame=509758   JointI=453932   JointJ=453933   IsCurved=No   GUID=6d87f831-1855-419d-963a-a2af499edc47
   Frame=509759   JointI=453934   JointJ=453935   IsCurved=No   GUID=54d0139f-07db-444b-96d3-457a1380bd42
   Frame=509760   JointI=453936   JointJ=453937   IsCurved=No   GUID=d2579a6e-f6c3-4de9-9ea6-f05418af98a0
   Frame=509761   JointI=453938   JointJ=453939   IsCurved=No   GUID=9b079370-71da-44cd-b942-7e09c7135780
   Frame=509762   JointI=453940   JointJ=453941   IsCurved=No   GUID=0f7992b1-1470-4bd8-8406-23802af4c89c
   Frame=509763   JointI=453942   JointJ=453943   IsCurved=No   GUID=bb00cf04-122e-4824-a5f0-d3dd0209ef1a
   Frame=509764   JointI=453944   JointJ=453945   IsCurved=No   GUID=e957774f-49cd-4e35-82d8-09a5618b6af5
   Frame=509765   JointI=453933   JointJ=453946   IsCurved=No   GUID=55ca70af-98fe-456f-abf8-b61c8bebe1b3
   Frame=509766   JointI=453935   JointJ=453947   IsCurved=No   GUID=ae07e7b8-15fe-46fa-8f89-92cd07d9bdb1
   Frame=509767   JointI=453937   JointJ=453948   IsCurved=No   GUID=7738eb4c-45ca-4c60-aff3-a3548bb32b6b
   Frame=509768   JointI=453939   JointJ=453949   IsCurved=No   GUID=24d24d20-4574-4ae7-910d-ebd27f831f59
   Frame=509769   JointI=453941   JointJ=453950   IsCurved=No   GUID=65a2e80a-af6a-424a-98a4-1f669b224078
   Frame=509770   JointI=453943   JointJ=453951   IsCurved=No   GUID=bfd02439-aa6a-4250-a6f0-b721666bdf63
   Frame=509771   JointI=453945   JointJ=453952   IsCurved=No   GUID=0dbff35f-64fd-4516-b9c7-caa9c6b651da
   Frame=509772   JointI=453946   JointJ=453953   IsCurved=No   GUID=26841ddb-560c-49dd-94d3-c4f4d8a9edd1
   Frame=509773   JointI=453947   JointJ=453954   IsCurved=No   GUID=b226979d-cdee-4838-b3ee-b674c17eab37
   Frame=509774   JointI=453948   JointJ=453955   IsCurved=No   GUID=737d39e5-972e-4de0-8b19-02e96ccc45be
   Frame=509775   JointI=453949   JointJ=453956   IsCurved=No   GUID=55f600c8-c2cd-46f9-a24e-dcefc81f633e
   Frame=509776   JointI=453950   JointJ=453957   IsCurved=No   GUID=9926ecac-b9ea-4008-ade7-5406125e5322
   Frame=509777   JointI=453951   JointJ=453958   IsCurved=No   GUID=cda5fdac-2162-4e9d-ab97-31971fba73dd
   Frame=509778   JointI=453952   JointJ=453959   IsCurved=No   GUID=4a61020a-f2c4-457b-9a06-e579a43fd715
   Frame=509779   JointI=453960   JointJ=453933   IsCurved=No   GUID=d237ff51-5910-4f22-a0f7-0741c80abc76
   Frame=509780   JointI=453961   JointJ=453946   IsCurved=No   GUID=c65ca8ae-282e-4d0a-8fba-20f266e46140
   Frame=509781   JointI=453933   JointJ=453935   IsCurved=No   GUID=24927d26-d8a1-415f-98ed-b9be9984aab4
   Frame=509782   JointI=453946   JointJ=453947   IsCurved=No   GUID=665386d6-f9f3-4a74-ac35-91a1356f6cc1
   Frame=509783   JointI=453935   JointJ=453937   IsCurved=No   GUID=9bc0e808-3675-4781-a6ca-aa6e1ac68a80
   Frame=509784   JointI=453947   JointJ=453948   IsCurved=No   GUID=49b7b0f4-d976-40a0-8dd5-c15b3d56f710
   Frame=509785   JointI=453937   JointJ=453939   IsCurved=No   GUID=818034f8-9c75-42b5-b753-0e1331384389
   Frame=509786   JointI=453948   JointJ=453949   IsCurved=No   GUID=6f16b02f-4581-4c7e-b4ff-aebd628821b3
   Frame=509787   JointI=453939   JointJ=453941   IsCurved=No   GUID=42cb7765-9458-4018-824c-76d1586057eb
   Frame=509788   JointI=453949   JointJ=453950   IsCurved=No   GUID=82eaf15b-07f7-48bd-8b25-a062448a5ce4
   Frame=509789   JointI=453941   JointJ=453943   IsCurved=No   GUID=2ebf4eed-d77a-48ca-a724-66b777cf0042
   Frame=509790   JointI=453950   JointJ=453951   IsCurved=No   GUID=faa4a054-e15c-4b09-96dd-c26e91ee0de6
   Frame=509791   JointI=453943   JointJ=453945   IsCurved=No   GUID=1f46da70-9eb0-4f3b-bfb3-e7fd927bc3e6
   Frame=509792   JointI=453951   JointJ=453952   IsCurved=No   GUID=a7ddb9ad-7904-4aef-8b92-a29c8ff1aa1e
   Frame=509793   JointI=453945   JointJ=453962   IsCurved=No   GUID=879c4fee-fed2-461c-a10a-9d0824e57f19
   Frame=509794   JointI=453952   JointJ=453963   IsCurved=No   GUID=262a31c0-5f30-44ed-a892-e7e5a01bca1e
   Frame=509795   JointI=453933   JointJ=453964   IsCurved=No   GUID=c85360f6-7ad8-4f00-acde-fab917976463
   Frame=509796   JointI=453964   JointJ=453965   IsCurved=No   GUID=31b2295b-9cdf-4cd4-ab3c-e18ae62eb078
   Frame=509797   JointI=453965   JointJ=453966   IsCurved=No   GUID=f591e6ef-68b6-4a5c-8d11-c712d12a5377
   Frame=509798   JointI=453935   JointJ=453967   IsCurved=No   GUID=90d6cb03-46b1-4020-aff3-22b4de4939f2
   Frame=509799   JointI=453967   JointJ=453968   IsCurved=No   GUID=71b52096-03d8-4e20-8e5a-c0071e3fecb2
   Frame=509800   JointI=453968   JointJ=453969   IsCurved=No   GUID=066ee8fc-359d-451e-b88e-68420d18ea78
   Frame=509801   JointI=453937   JointJ=453970   IsCurved=No   GUID=54f6528f-fc48-4e8b-b87a-82ae7723de61
   Frame=509802   JointI=453970   JointJ=453971   IsCurved=No   GUID=66d07b0f-9481-4cd2-909b-13a4d8b5116e
   Frame=509803   JointI=453971   JointJ=453972   IsCurved=No   GUID=8af136da-551a-4e25-a1c6-b7b2b4bf9e07
   Frame=509804   JointI=453939   JointJ=453973   IsCurved=No   GUID=e4216e06-cb3d-41dd-96bf-875066ed9ed7
   Frame=509805   JointI=453973   JointJ=453974   IsCurved=No   GUID=d49633d7-e1b0-4fbe-8c8d-10084672ceb2
   Frame=509806   JointI=453974   JointJ=453975   IsCurved=No   GUID=7b7acef3-2ae4-41ed-b955-9ef051bb1053
   Frame=509807   JointI=453941   JointJ=453976   IsCurved=No   GUID=30079627-7795-4d87-ba29-fe8740656277
   Frame=509808   JointI=453976   JointJ=453977   IsCurved=No   GUID=d130a8c6-f386-45cb-a0c7-e70305d1e511
   Frame=509809   JointI=453977   JointJ=453978   IsCurved=No   GUID=55dbbbc9-23bc-43de-8e5a-99981599a159
   Frame=509810   JointI=453943   JointJ=453979   IsCurved=No   GUID=b1b5dab8-cb93-4f91-b11e-946e09b3aa61
   Frame=509811   JointI=453979   JointJ=453980   IsCurved=No   GUID=473d80fa-27ce-4bfb-8bf2-7068e0bf71c5
   Frame=509812   JointI=453980   JointJ=453981   IsCurved=No   GUID=874917ee-86a7-4eb0-8900-e2e8f3d9a35c
   Frame=509813   JointI=453945   JointJ=453982   IsCurved=No   GUID=363ed5d3-802d-4224-986d-51e2097ed589
   Frame=509814   JointI=453982   JointJ=453983   IsCurved=No   GUID=f29ad5a8-ca6c-46ea-933b-47b2a711fa01
   Frame=509815   JointI=453983   JointJ=453984   IsCurved=No   GUID=d5f5fd46-cb72-4a55-8fcf-d440b21eacdb
   Frame=509816   JointI=453946   JointJ=453985   IsCurved=No   GUID=b72b2507-5c6c-48bb-878f-05e483ad0db0
   Frame=509817   JointI=453985   JointJ=453986   IsCurved=No   GUID=967de403-4170-4cb6-b285-c87df311f7f0
   Frame=509818   JointI=453947   JointJ=453987   IsCurved=No   GUID=c2158d54-9c25-484e-9874-b4ff548b044a
   Frame=509819   JointI=453987   JointJ=453988   IsCurved=No   GUID=9634a953-9f69-4ecb-870d-48c48c473219
   Frame=509820   JointI=453948   JointJ=453989   IsCurved=No   GUID=90cc76b2-7d0b-4b93-8975-f8b6b5e523a5
   Frame=509821   JointI=453989   JointJ=453990   IsCurved=No   GUID=7602e005-d383-4ede-b86b-44c48fe2d788
   Frame=509822   JointI=453949   JointJ=453991   IsCurved=No   GUID=94ad7a85-318c-4ba0-85de-b3e1e0ed1d97
   Frame=509823   JointI=453991   JointJ=453992   IsCurved=No   GUID=07bdc4b6-1c65-4154-989c-212fa16753db
   Frame=509824   JointI=453950   JointJ=453993   IsCurved=No   GUID=942941ec-479a-4457-b5f9-3d83b59c9f6b
   Frame=509825   JointI=453993   JointJ=453994   IsCurved=No   GUID=ca01e081-789a-4ff9-bf50-2d2170fe08ed
   Frame=509826   JointI=453951   JointJ=453995   IsCurved=No   GUID=e8f05ab5-e725-44d1-9f12-ad32f6375b42
   Frame=509827   JointI=453995   JointJ=453996   IsCurved=No   GUID=78a40f67-0aa7-4839-9fdc-10007a729f60
   Frame=509828   JointI=453952   JointJ=453997   IsCurved=No   GUID=38ed3302-8c16-43c7-a9fc-4f41377d10f9
   Frame=509829   JointI=453997   JointJ=453998   IsCurved=No   GUID=60a5a52f-6c4e-481e-a54d-79aae458fc52
   Frame=509830   JointI=453964   JointJ=453967   IsCurved=No   GUID=851ef2b6-496f-463d-a3bf-abe525033cd7
   Frame=509831   JointI=453967   JointJ=453970   IsCurved=No   GUID=5faee154-fca1-4297-a574-980a451459cf
   Frame=509832   JointI=453970   JointJ=453973   IsCurved=No   GUID=18b7bc69-be53-4e20-99cf-ac0b26f147bc
   Frame=509833   JointI=453973   JointJ=453976   IsCurved=No   GUID=855f850b-9f93-455f-99dd-89a46bd151a0
   Frame=509834   JointI=453976   JointJ=453979   IsCurved=No   GUID=8eb6e24b-ffe7-4fee-8928-cda1411bb592
   Frame=509835   JointI=453979   JointJ=453982   IsCurved=No   GUID=dd52eea3-ad24-4c7f-ab37-3968b03e8c12
 
TABLE:  "COORDINATE SYSTEMS"
   Name=GLOBAL   Type=Cartesian   X=0   Y=0   Z=0   AboutZ=0   AboutY=0   AboutX=0
 
TABLE:  "DATABASE DOCUMENTATION"
 
TABLE:  "DATABASE FORMAT TYPES"
   UnitsCurr=Yes   OverrideE=No
 
TABLE:  "FRAME AUTO MESH ASSIGNMENTS"
   Frame=509758   AutoMesh=Yes   AtJoints=Yes   AtFrames=No   NumSegments=0   MaxLength=0   MaxDegrees=0
   Frame=509759   AutoMesh=Yes   AtJoints=Yes   AtFrames=No   NumSegments=0   MaxLength=0   MaxDegrees=0
   Frame=509760   AutoMesh=Yes   AtJoints=Yes   AtFrames=No   NumSegments=0   MaxLength=0   MaxDegrees=0
   Frame=509761   AutoMesh=Yes   AtJoints=Yes   AtFrames=No   NumSegments=0   MaxLength=0   MaxDegrees=0
   Frame=509762   AutoMesh=Yes   AtJoints=Yes   AtFrames=No   NumSegments=0   MaxLength=0   MaxDegrees=0
   Frame=509763   AutoMesh=Yes   AtJoints=Yes   AtFrames=No   NumSegments=0   MaxLength=0   MaxDegrees=0
   Frame=509764   AutoMesh=Yes   AtJoints=Yes   AtFrames=No   NumSegments=0   MaxLength=0   MaxDegrees=0
   Frame=509765   AutoMesh=Yes   AtJoints=Yes   AtFrames=No   NumSegments=0   MaxLength=0   MaxDegrees=0
   Frame=509766   AutoMesh=Yes   AtJoints=Yes   AtFrames=No   NumSegments=0   MaxLength=0   MaxDegrees=0
   Frame=509767   AutoMesh=Yes   AtJoints=Yes   AtFrames=No   NumSegments=0   MaxLength=0   MaxDegrees=0
   Frame=509768   AutoMesh=Yes   AtJoints=Yes   AtFrames=No   NumSegments=0   MaxLength=0   MaxDegrees=0
   Frame=509769   AutoMesh=Yes   AtJoints=Yes   AtFrames=No   NumSegments=0   MaxLength=0   MaxDegrees=0
   Frame=509770   AutoMesh=Yes   AtJoints=Yes   AtFrames=No   NumSegments=0   MaxLength=0   MaxDegrees=0
   Frame=509771   AutoMesh=Yes   AtJoints=Yes   AtFrames=No   NumSegments=0   MaxLength=0   MaxDegrees=0
   Frame=509772   AutoMesh=Yes   AtJoints=Yes   AtFrames=No   NumSegments=0   MaxLength=0   MaxDegrees=0
   Frame=509773   AutoMesh=Yes   AtJoints=Yes   AtFrames=No   NumSegments=0   MaxLength=0   MaxDegrees=0
   Frame=509774   AutoMesh=Yes   AtJoints=Yes   AtFrames=No   NumSegments=0   MaxLength=0   MaxDegrees=0
   Frame=509775   AutoMesh=Yes   AtJoints=Yes   AtFrames=No   NumSegments=0   MaxLength=0   MaxDegrees=0
   Frame=509776   AutoMesh=Yes   AtJoints=Yes   AtFrames=No   NumSegments=0   MaxLength=0   MaxDegrees=0
   Frame=509777   AutoMesh=Yes   AtJoints=Yes   AtFrames=No   NumSegments=0   MaxLength=0   MaxDegrees=0
# ... 58 like lines cut
 
TABLE:  "FRAME DESIGN PROCEDURES"
   Frame=509758   DesignProc="From Material"
   Frame=509759   DesignProc="From Material"
   Frame=509760   DesignProc="From Material"
   Frame=509761   DesignProc="From Material"
   Frame=509762   DesignProc="From Material"
   Frame=509763   DesignProc="From Material"
   Frame=509764   DesignProc="From Material"
   Frame=509765   DesignProc="From Material"
   Frame=509766   DesignProc="From Material"
   Frame=509767   DesignProc="From Material"
   Frame=509768   DesignProc="From Material"
   Frame=509769   DesignProc="From Material"
   Frame=509770   DesignProc="From Material"
   Frame=509771   DesignProc="From Material"
   Frame=509772   DesignProc="From Material"
   Frame=509773   DesignProc="From Material"
   Frame=509774   DesignProc="From Material"
   Frame=509775   DesignProc="From Material"
   Frame=509776   DesignProc="From Material"
   Frame=509777   DesignProc="From Material"
# ... 18 like lines cut
   Frame=509796   DesignProc="No Design"
   Frame=509797   DesignProc="No Design"
   Frame=509798   DesignProc="From Material"
   Frame=509799   DesignProc="No Design"
   Frame=509800   DesignProc="No Design"
   Frame=509801   DesignProc="From Material"
   Frame=509802   DesignProc="No Design"
   Frame=509803   DesignProc="No Design"
   Frame=509804   DesignProc="From Material"
   Frame=509805   DesignProc="No Design"
   Frame=509806   DesignProc="No Design"
   Frame=509807   DesignProc="From Material"
   Frame=509808   DesignProc="No Design"
   Frame=509809   DesignProc="No Design"
   Frame=509810   DesignProc="From Material"
   Frame=509811   DesignProc="No Design"
   Frame=509812   DesignProc="No Design"
   Frame=509813   DesignProc="From Material"
   Frame=509814   DesignProc="No Design"
   Frame=509815   DesignProc="No Design"
   Frame=509816   DesignProc="No Design"
   Frame=509817   DesignProc="No Design"
   Frame=509818   DesignProc="No Design"
   Frame=509819   DesignProc="No Design"
   Frame=509820   DesignProc="No Design"
   Frame=509821   DesignProc="No Design"
   Frame=509822   DesignProc="No Design"
   Frame=509823   DesignProc="No Design"
   Frame=509824   DesignProc="No Design"
   Frame=509825   DesignProc="No Design"
   Frame=509826   DesignProc="No Design"
   Frame=509827   DesignProc="No Design"
   Frame=509828   DesignProc="No Design"
   Frame=509829   DesignProc="No Design"
   Frame=509830   DesignProc="From Material"
   Frame=509831   DesignProc="From Material"
   Frame=509832   DesignProc="From Material"
   Frame=509833   DesignProc="From Material"
   Frame=509834   DesignProc="From Material"
   Frame=509835   DesignProc="From Material"
 
TABLE:  "FRAME LOAD TRANSFER OPTIONS"
   Frame=509758   Transfer=Yes
   Frame=509759   Transfer=Yes
   Frame=509760   Transfer=Yes
   Frame=509761   Transfer=Yes
   Frame=509762   Transfer=Yes
   Frame=509763   Transfer=Yes
   Frame=509764   Transfer=Yes
   Frame=509765   Transfer=Yes
   Frame=509766   Transfer=Yes
   Frame=509767   Transfer=Yes
   Frame=509768   Transfer=Yes
   Frame=509769   Transfer=Yes
   Frame=509770   Transfer=Yes
   Frame=509771   Transfer=Yes
   Frame=509772   Transfer=Yes
   Frame=509773   Transfer=Yes
   Frame=509774   Transfer=Yes
   Frame=509775   Transfer=Yes
   Frame=509776   Transfer=Yes
   Frame=509777   Transfer=Yes
# ... 58 like lines cut
 
TABLE:  "FRAME LOCAL AXES ASSIGNMENTS 1 - TYPICAL"
   Frame=509795   Angle=90
   Frame=509798   Angle=90
   Frame=509801   Angle=90
   Frame=509804   Angle=90
   Frame=509807   Angle=90
   Frame=509810   Angle=90
   Frame=509813   Angle=90
 
TABLE:  "FRAME OUTPUT STATION ASSIGNMENTS"
   Frame=509758   StationType=MaxStaSpcg   MaxStaSpcg=0.5   AddAtElmInt=Yes   AddAtPtLoad=Yes
   Frame=509759   StationType=MaxStaSpcg   MaxStaSpcg=0.5   AddAtElmInt=Yes   AddAtPtLoad=Yes
   Frame=509760   StationType=MaxStaSpcg   MaxStaSpcg=0.5   AddAtElmInt=Yes   AddAtPtLoad=Yes
   Frame=509761   StationType=MaxStaSpcg   MaxStaSpcg=0.5   AddAtElmInt=Yes   AddAtPtLoad=Yes
   Frame=509762   StationType=MaxStaSpcg   MaxStaSpcg=0.5   AddAtElmInt=Yes   AddAtPtLoad=Yes
   Frame=509763   StationType=MaxStaSpcg   MaxStaSpcg=0.5   AddAtElmInt=Yes   AddAtPtLoad=Yes
   Frame=509764   StationType=MaxStaSpcg   MaxStaSpcg=0.5   AddAtElmInt=Yes   AddAtPtLoad=Yes
   Frame=509765   StationType=MaxStaSpcg   MaxStaSpcg=0.5   AddAtElmInt=Yes   AddAtPtLoad=Yes
   Frame=509766   StationType=MaxStaSpcg   MaxStaSpcg=0.5   AddAtElmInt=Yes   AddAtPtLoad=Yes
   Frame=509767   StationType=MaxStaSpcg   MaxStaSpcg=0.5   AddAtElmInt=Yes   AddAtPtLoad=Yes
   Frame=509768   StationType=MaxStaSpcg   MaxStaSpcg=0.5   AddAtElmInt=Yes   AddAtPtLoad=Yes
   Frame=509769   StationType=MaxStaSpcg   MaxStaSpcg=0.5   AddAtElmInt=Yes   AddAtPtLoad=Yes
   Frame=509770   StationType=MaxStaSpcg   MaxStaSpcg=0.5   AddAtElmInt=Yes   AddAtPtLoad=Yes
   Frame=509771   StationType=MaxStaSpcg   MaxStaSpcg=0.5   AddAtElmInt=Yes   AddAtPtLoad=Yes
   Frame=509772   StationType=MaxStaSpcg   MaxStaSpcg=0.5   AddAtElmInt=Yes   AddAtPtLoad=Yes
   Frame=509773   StationType=MaxStaSpcg   MaxStaSpcg=0.5   AddAtElmInt=Yes   AddAtPtLoad=Yes
   Frame=509774   StationType=MaxStaSpcg   MaxStaSpcg=0.5   AddAtElmInt=Yes   AddAtPtLoad=Yes
   Frame=509775   StationType=MaxStaSpcg   MaxStaSpcg=0.5   AddAtElmInt=Yes   AddAtPtLoad=Yes
   Frame=509776   StationType=MaxStaSpcg   MaxStaSpcg=0.5   AddAtElmInt=Yes   AddAtPtLoad=Yes
   Frame=509777   StationType=MaxStaSpcg   MaxStaSpcg=0.5   AddAtElmInt=Yes   AddAtPtLoad=Yes
# ... 17 like lines cut
   Frame=509795   StationType=MinNumSta   MinNumSta=3   AddAtElmInt=Yes   AddAtPtLoad=Yes
   Frame=509796   StationType=MinNumSta   MinNumSta=3   AddAtElmInt=Yes   AddAtPtLoad=Yes
   Frame=509797   StationType=MinNumSta   MinNumSta=3   AddAtElmInt=Yes   AddAtPtLoad=Yes
   Frame=509798   StationType=MinNumSta   MinNumSta=3   AddAtElmInt=Yes   AddAtPtLoad=Yes
   Frame=509799   StationType=MinNumSta   MinNumSta=3   AddAtElmInt=Yes   AddAtPtLoad=Yes
   Frame=509800   StationType=MinNumSta   MinNumSta=3   AddAtElmInt=Yes   AddAtPtLoad=Yes
   Frame=509801   StationType=MinNumSta   MinNumSta=3   AddAtElmInt=Yes   AddAtPtLoad=Yes
   Frame=509802   StationType=MinNumSta   MinNumSta=3   AddAtElmInt=Yes   AddAtPtLoad=Yes
   Frame=509803   StationType=MinNumSta   MinNumSta=3   AddAtElmInt=Yes   AddAtPtLoad=Yes
   Frame=509804   StationType=MinNumSta   MinNumSta=3   AddAtElmInt=Yes   AddAtPtLoad=Yes
   Frame=509805   StationType=MinNumSta   MinNumSta=3   AddAtElmInt=Yes   AddAtPtLoad=Yes
   Frame=509806   StationType=MinNumSta   MinNumSta=3   AddAtElmInt=Yes   AddAtPtLoad=Yes
   Frame=509807   StationType=MinNumSta   MinNumSta=3   AddAtElmInt=Yes   AddAtPtLoad=Yes
   Frame=509808   StationType=MinNumSta   MinNumSta=3   AddAtElmInt=Yes   AddAtPtLoad=Yes
   Frame=509809   StationType=MinNumSta   MinNumSta=3   AddAtElmInt=Yes   AddAtPtLoad=Yes
   Frame=509810   StationType=MinNumSta   MinNumSta=3   AddAtElmInt=Yes   AddAtPtLoad=Yes
   Frame=509811   StationType=MinNumSta   MinNumSta=3   AddAtElmInt=Yes   AddAtPtLoad=Yes
   Frame=509812   StationType=MinNumSta   MinNumSta=3   AddAtElmInt=Yes   AddAtPtLoad=Yes
   Frame=509813   StationType=MinNumSta   MinNumSta=3   AddAtElmInt=Yes   AddAtPtLoad=Yes
   Frame=509814   StationType=MinNumSta   MinNumSta=3   AddAtElmInt=Yes   AddAtPtLoad=Yes
# ... 15 like lines cut
   Frame=509830   StationType=MaxStaSpcg   MaxStaSpcg=0.5   AddAtElmInt=Yes   AddAtPtLoad=Yes
   Frame=509831   StationType=MaxStaSpcg   MaxStaSpcg=0.5   AddAtElmInt=Yes   AddAtPtLoad=Yes
   Frame=509832   StationType=MaxStaSpcg   MaxStaSpcg=0.5   AddAtElmInt=Yes   AddAtPtLoad=Yes
   Frame=509833   StationType=MaxStaSpcg   MaxStaSpcg=0.5   AddAtElmInt=Yes   AddAtPtLoad=Yes
   Frame=509834   StationType=MaxStaSpcg   MaxStaSpcg=0.5   AddAtElmInt=Yes   AddAtPtLoad=Yes
   Frame=509835   StationType=MaxStaSpcg   MaxStaSpcg=0.5   AddAtElmInt=Yes   AddAtPtLoad=Yes
 
TABLE:  "FRAME SECTION ASSIGNMENTS"
   Frame=509758   AutoSelect=N.A.   AnalSect=TB   MatProp=Default
   Frame=509759   AutoSelect=N.A.   AnalSect=TB   MatProp=Default
   Frame=509760   AutoSelect=N.A.   AnalSect=TB   MatProp=Default
   Frame=509761   AutoSelect=N.A.   AnalSect=TB   MatProp=Default
   Frame=509762   AutoSelect=N.A.   AnalSect=TB   MatProp=Default
   Frame=509763   AutoSelect=N.A.   AnalSect=TB   MatProp=Default
   Frame=509764   AutoSelect=N.A.   AnalSect=TB   MatProp=Default
   Frame=509765   AutoSelect=N.A.   AnalSect=TB   MatProp=Default
   Frame=509766   AutoSelect=N.A.   AnalSect=TB   MatProp=Default
   Frame=509767   AutoSelect=N.A.   AnalSect=TB   MatProp=Default
   Frame=509768   AutoSelect=N.A.   AnalSect=TB   MatProp=Default
   Frame=509769   AutoSelect=N.A.   AnalSect=TB   MatProp=Default
   Frame=509770   AutoSelect=N.A.   AnalSect=TB   MatProp=Default
   Frame=509771   AutoSelect=N.A.   AnalSect=TB   MatProp=Default
   Frame=509772   AutoSelect=N.A.   AnalSect=TB   MatProp=Default
   Frame=509773   AutoSelect=N.A.   AnalSect=TB   MatProp=Default
   Frame=509774   AutoSelect=N.A.   AnalSect=TB   MatProp=Default
   Frame=509775   AutoSelect=N.A.   AnalSect=TB   MatProp=Default
   Frame=509776   AutoSelect=N.A.   AnalSect=TB   MatProp=Default
   Frame=509777   AutoSelect=N.A.   AnalSect=TB   MatProp=Default
   Frame=509778   AutoSelect=N.A.   AnalSect=TB   MatProp=Default
   Frame=509779   AutoSelect=N.A.   AnalSect=LB   MatProp=Default
   Frame=509780   AutoSelect=N.A.   AnalSect=LB   MatProp=Default
   Frame=509781   AutoSelect=N.A.   AnalSect=LB   MatProp=Default
   Frame=509782   AutoSelect=N.A.   AnalSect=LB   MatProp=Default
   Frame=509783   AutoSelect=N.A.   AnalSect=LB   MatProp=Default
   Frame=509784   AutoSelect=N.A.   AnalSect=LB   MatProp=Default
   Frame=509785   AutoSelect=N.A.   AnalSect=LB   MatProp=Default
   Frame=509786   AutoSelect=N.A.   AnalSect=LB   MatProp=Default
   Frame=509787   AutoSelect=N.A.   AnalSect=LB   MatProp=Default
   Frame=509788   AutoSelect=N.A.   AnalSect=LB   MatProp=Default
   Frame=509789   AutoSelect=N.A.   AnalSect=LB   MatProp=Default
   Frame=509790   AutoSelect=N.A.   AnalSect=LB   MatProp=Default
   Frame=509791   AutoSelect=N.A.   AnalSect=LB   MatProp=Default
   Frame=509792   AutoSelect=N.A.   AnalSect=LB   MatProp=Default
   Frame=509793   AutoSelect=N.A.   AnalSect=LB   MatProp=Default
   Frame=509794   AutoSelect=N.A.   AnalSect=LB   MatProp=Default
   Frame=509795   AutoSelect=N.A.   AnalSect=EB   MatProp=Default
   Frame=509796   AutoSelect=N.A.   AnalSect=Piles   MatProp=Default
   Frame=509797   AutoSelect=N.A.   AnalSect=Piles   MatProp=Default
   Frame=509798   AutoSelect=N.A.   AnalSect=EB   MatProp=Default
   Frame=509799   AutoSelect=N.A.   AnalSect=Piles   MatProp=Default
   Frame=509800   AutoSelect=N.A.   AnalSect=Piles   MatProp=Default
   Frame=509801   AutoSelect=N.A.   AnalSect=EB   MatProp=Default
   Frame=509802   AutoSelect=N.A.   AnalSect=Piles   MatProp=Default
   Frame=509803   AutoSelect=N.A.   AnalSect=Piles   MatProp=Default
   Frame=509804   AutoSelect=N.A.   AnalSect=EB   MatProp=Default
   Frame=509805   AutoSelect=N.A.   AnalSect=Piles   MatProp=Default
   Frame=509806   AutoSelect=N.A.   AnalSect=Piles   MatProp=Default
   Frame=509807   AutoSelect=N.A.   AnalSect=EB   MatProp=Default
   Frame=509808   AutoSelect=N.A.   AnalSect=Piles   MatProp=Default
   Frame=509809   AutoSelect=N.A.   AnalSect=Piles   MatProp=Default
   Frame=509810   AutoSelect=N.A.   AnalSect=EB   MatProp=Default
   Frame=509811   AutoSelect=N.A.   AnalSect=Piles   MatProp=Default
   Frame=509812   AutoSelect=N.A.   AnalSect=Piles   MatProp=Default
   Frame=509813   AutoSelect=N.A.   AnalSect=EB   MatProp=Default
   Frame=509814   AutoSelect=N.A.   AnalSect=Piles   MatProp=Default
   Frame=509815   AutoSelect=N.A.   AnalSect=Piles   MatProp=Default
   Frame=509816   AutoSelect=N.A.   AnalSect=Piles   MatProp=Default
   Frame=509817   AutoSelect=N.A.   AnalSect=Piles   MatProp=Default
   Frame=509818   AutoSelect=N.A.   AnalSect=Piles   MatProp=Default
   Frame=509819   AutoSelect=N.A.   AnalSect=Piles   MatProp=Default
   Frame=509820   AutoSelect=N.A.   AnalSect=Piles   MatProp=Default
   Frame=509821   AutoSelect=N.A.   AnalSect=Piles   MatProp=Default
   Frame=509822   AutoSelect=N.A.   AnalSect=Piles   MatProp=Default
   Frame=509823   AutoSelect=N.A.   AnalSect=Piles   MatProp=Default
   Frame=509824   AutoSelect=N.A.   AnalSect=Piles   MatProp=Default
   Frame=509825   AutoSelect=N.A.   AnalSect=Piles   MatProp=Default
   Frame=509826   AutoSelect=N.A.   AnalSect=Piles   MatProp=Default
   Frame=509827   AutoSelect=N.A.   AnalSect=Piles   MatProp=Default
   Frame=509828   AutoSelect=N.A.   AnalSect=Piles   MatProp=Default
   Frame=509829   AutoSelect=N.A.   AnalSect=Piles   MatProp=Default
   Frame=509830   AutoSelect=N.A.   AnalSect=EB-1   MatProp=Default
   Frame=509831   AutoSelect=N.A.   AnalSect=EB-1   MatProp=Default
   Frame=509832   AutoSelect=N.A.   AnalSect=EB-1   MatProp=Default
   Frame=509833   AutoSelect=N.A.   AnalSect=EB-1   MatProp=Default
   Frame=509834   AutoSelect=N.A.   AnalSect=EB-1   MatProp=Default
   Frame=509835   AutoSelect=N.A.   AnalSect=EB-1   MatProp=Default
 
TABLE:  "FRAME SECTION PROPERTIES 01 - GENERAL"
   SectionName=EB   Material=BTCT   Shape=Rectangular   t3=1.2   t2=0.5   Area=0.6   TorsConst=0.0369079665195795   I33=0.072   I22=0.0125   I23=0   AS2=0.5   AS3=0.5   S33Top=0.12   S33Bot=0.12   S22Left=0.05   S22Right=0.05   Z33=0.18 _
        Z22=0.075   R33=0.346410161513775   R22=0.144337567297406   CGOffset3=0   CGOffset2=0   EccV2=0   EccV3=0   Cw=0   Color=Red   FromFile=No   AMod=1   A2Mod=1   A3Mod=1   JMod=1   I2Mod=1   I3Mod=1   MMod=1   WMod=1
   SectionName=EB-1   Material=BTCT   Shape=Rectangular   t3=0.5   t2=0.5   Area=0.25   TorsConst=0.00880208333333333   I33=0.00520833333333333   I22=0.00520833333333333   I23=0   AS2=0.208333333333333   AS3=0.208333333333333 _
        S33Top=0.0208333333333333   S33Bot=0.0208333333333333   S22Left=0.0208333333333333   S22Right=0.0208333333333333   Z33=0.03125   Z22=0.03125   R33=0.144337567297406   R22=0.144337567297406   CGOffset3=0   CGOffset2=0   EccV2=0 _
        EccV3=0   Cw=0   Color=Magenta   FromFile=No   AMod=1   A2Mod=1   A3Mod=1   JMod=1   I2Mod=1   I3Mod=1   MMod=1   WMod=1
   SectionName=LB   Material=BTCT   Shape=Rectangular   t3=0.5   t2=0.5   Area=0.25   TorsConst=0.00880208333333333   I33=0.00520833333333333   I22=0.00520833333333333   I23=0   AS2=0.208333333333333   AS3=0.208333333333333 _
        S33Top=0.0208333333333333   S33Bot=0.0208333333333333   S22Left=0.0208333333333333   S22Right=0.0208333333333333   Z33=0.03125   Z22=0.03125   R33=0.144337567297406   R22=0.144337567297406   CGOffset3=0   CGOffset2=0   EccV2=0 _
        EccV3=0   Cw=0   Color=Cyan   FromFile=No   AMod=1   A2Mod=1   A3Mod=1   JMod=1   I2Mod=1   I3Mod=1   MMod=1   WMod=1
   SectionName=Piles   Material=BTCTCOC   Shape=Pipe   t3=0.3   tw=0.06   Area=0.045238934211693   TorsConst=0.000692155693438903   I33=0.000346077846719452   I22=0.000346077846719452   I23=0   AS2=0.0235427106611872 _
        AS3=0.0235427106611872   S33Top=0.00230718564479634   S33Bot=0.00230718564479634   S22Left=0.00230718564479634   S22Right=0.00230718564479634   Z33=0.003528   Z22=0.003528   R33=0.0874642784226795   R22=0.0874642784226795 _
        CGOffset3=0   CGOffset2=0   EccV2=0   EccV3=0   Cw=0   Color=Yellow   FromFile=No   AMod=1   A2Mod=1   A3Mod=1   JMod=1   I2Mod=1   I3Mod=1   MMod=1   WMod=1
   SectionName=TB   Material=BTCT   Shape=Rectangular   t3=0.5   t2=0.5   Area=0.25   TorsConst=0.00880208333333333   I33=0.00520833333333333   I22=0.00520833333333333   I23=0   AS2=0.208333333333333   AS3=0.208333333333333 _
        S33Top=0.0208333333333333   S33Bot=0.0208333333333333   S22Left=0.0208333333333333   S22Right=0.0208333333333333   Z33=0.03125   Z22=0.03125   R33=0.144337567297406   R22=0.144337567297406   CGOffset3=0   CGOffset2=0   EccV2=0 _
        EccV3=0   Cw=0   Color=Green   FromFile=No   AMod=1   A2Mod=1   A3Mod=1   JMod=1   I2Mod=1   I3Mod=1   MMod=1   WMod=1
 
TABLE:  "FRAME SECTION PROPERTIES 02 - CONCRETE COLUMN"
   SectionName=EB   RebarMatL=A706   RebarMatC=A706   ReinfConfig=Rectangular   LatReinf=Ties   Cover=0.05   NumBars3Dir=2   NumBars2Dir=2   BarSizeL=12d   BarSizeC=10d   SpacingC=0.1   NumCBars2=2   NumCBars3=2   ReinfType=Design
   SectionName=EB-1   RebarMatL=A706   RebarMatC=A706   ReinfConfig=Rectangular   LatReinf=Ties   Cover=0.05   NumBars3Dir=2   NumBars2Dir=2   BarSizeL=12d   BarSizeC=10d   SpacingC=0.1   NumCBars2=2   NumCBars3=2   ReinfType=Design
   SectionName=LB   RebarMatL=A706   RebarMatC=A706   ReinfConfig=Rectangular   LatReinf=Ties   Cover=0.05   NumBars3Dir=2   NumBars2Dir=2   BarSizeL=12d   BarSizeC=10d   SpacingC=0.1   NumCBars2=2   NumCBars3=2   ReinfType=Design
   SectionName=TB   RebarMatL=A706   RebarMatC=A706   ReinfConfig=Rectangular   LatReinf=Ties   Cover=0.05   NumBars3Dir=2   NumBars2Dir=2   BarSizeL=12d   BarSizeC=10d   SpacingC=0.1   NumCBars2=2   NumCBars3=2   ReinfType=Design
 
TABLE:  "FRAME SECTION PROPERTIES 13 - TIME DEPENDENT"
   SectionName=EB   TypeSize=Auto   AutoSFSize=1
   SectionName=EB-1   TypeSize=Auto   AutoSFSize=1
   SectionName=LB   TypeSize=Auto   AutoSFSize=1
   SectionName=Piles   TypeSize=Auto   AutoSFSize=1
   SectionName=TB   TypeSize=Auto   AutoSFSize=1
 
TABLE:  "FUNCTION - PLOT FUNCTIONS"
   PlotFunc="Input Energy"   Type=Energy   Component=Input   Mode=All
 
TABLE:  "FUNCTION - POWER SPECTRAL DENSITY - USER"
   Name=UNIFPSD   Frequency=0   Value=1
   Name=UNIFPSD   Frequency=1   Value=1
 
TABLE:  "FUNCTION - RESPONSE SPECTRUM - USER"
   Name=UNIFRS   Period=0   Accel=1   FuncDamp=0.05
   Name=UNIFRS   Period=1   Accel=1
 
TABLE:  "FUNCTION - STEADY STATE - USER"
   Name=UNIFSS   Frequency=0   Value=1
   Name=UNIFSS   Frequency=1   Value=1
 
TABLE:  "FUNCTION - TIME HISTORY - USER"
   Name=RAMPTH   Time=0   Value=0
   Name=RAMPTH   Time=1   Value=1
   Name=RAMPTH   Time=4   Value=1
   Name=UNIFTH   Time=0   Value=1
   Name=UNIFTH   Time=1   Value=1
 
TABLE:  "GRID LINES"
   CoordSys=GLOBAL   AxisDir=X   GridID=A   XRYZCoord=-10   LineType=Primary   LineColor=Gray8Dark   Visible=Yes   BubbleLoc=End   AllVisible=Yes   BubbleSize=0.9375
   CoordSys=GLOBAL   AxisDir=X   GridID=B   XRYZCoord=-9   LineType=Primary   LineColor=Gray8Dark   Visible=Yes   BubbleLoc=End
   CoordSys=GLOBAL   AxisDir=X   GridID=C   XRYZCoord=-4.5   LineType=Primary   LineColor=Gray8Dark   Visible=Yes   BubbleLoc=End
   CoordSys=GLOBAL   AxisDir=X   GridID=D   XRYZCoord=0   LineType=Primary   LineColor=Gray8Dark   Visible=Yes   BubbleLoc=End
   CoordSys=GLOBAL   AxisDir=X   GridID=E   XRYZCoord=4.5   LineType=Primary   LineColor=Gray8Dark   Visible=Yes   BubbleLoc=End
   CoordSys=GLOBAL   AxisDir=X   GridID=F   XRYZCoord=9   LineType=Primary   LineColor=Gray8Dark   Visible=Yes   BubbleLoc=End
   CoordSys=GLOBAL   AxisDir=X   GridID=G   XRYZCoord=10   LineType=Primary   LineColor=Gray8Dark   Visible=Yes   BubbleLoc=End
   CoordSys=GLOBAL   AxisDir=Y   GridID=1   XRYZCoord=-5.2   LineType=Primary   LineColor=Gray8Dark   Visible=Yes   BubbleLoc=Start
   CoordSys=GLOBAL   AxisDir=Y   GridID=2   XRYZCoord=-4.2   LineType=Primary   LineColor=Gray8Dark   Visible=Yes   BubbleLoc=Start
   CoordSys=GLOBAL   AxisDir=Y   GridID=3   XRYZCoord=0   LineType=Primary   LineColor=Gray8Dark   Visible=Yes   BubbleLoc=Start
   CoordSys=GLOBAL   AxisDir=Y   GridID=4   XRYZCoord=4.2   LineType=Primary   LineColor=Gray8Dark   Visible=Yes   BubbleLoc=Start
   CoordSys=GLOBAL   AxisDir=Y   GridID=5   XRYZCoord=4.8   LineType=Primary   LineColor=Gray8Dark   Visible=Yes   BubbleLoc=Start
   CoordSys=GLOBAL   AxisDir=Z   GridID=Z1   XRYZCoord=0   LineType=Primary   LineColor=Gray8Dark   Visible=Yes   BubbleLoc=End
   CoordSys=GLOBAL   AxisDir=Z   GridID=Z2   XRYZCoord=13   LineType=Primary   LineColor=Gray8Dark   Visible=Yes   BubbleLoc=End
 
TABLE:  "GROUPS 1 - DEFINITIONS"
   GroupName=ALL   Selection=Yes   SectionCut=Yes   Steel=Yes   Concrete=Yes   Aluminum=Yes   ColdFormed=Yes   Stage=Yes   Bridge=Yes   AutoSeismic=No   AutoWind=No   SelDesSteel=No   SelDesAlum=No   SelDesCold=No   MassWeight=Yes   Color=Red
   GroupName=Pile   Selection=Yes   SectionCut=Yes   Steel=Yes   Concrete=Yes   Aluminum=Yes   ColdFormed=Yes   Stage=Yes   Bridge=Yes   AutoSeismic=No   AutoWind=No   SelDesSteel=No   SelDesAlum=No   SelDesCold=No   MassWeight=Yes   Color=Gray8Dark
   GroupName=DN   Selection=Yes   SectionCut=Yes   Steel=Yes   Concrete=Yes   Aluminum=Yes   ColdFormed=Yes   Stage=Yes   Bridge=Yes   AutoSeismic=No   AutoWind=No   SelDesSteel=No   SelDesAlum=No   SelDesCold=No   MassWeight=Yes   Color=Yellow
   GroupName=Pile_Toe   Selection=Yes   SectionCut=Yes   Steel=Yes   Concrete=Yes   Aluminum=Yes   ColdFormed=Yes   Stage=Yes   Bridge=Yes   AutoSeismic=No   AutoWind=No   SelDesSteel=No   SelDesAlum=No   SelDesCold=No   MassWeight=Yes   Color=Green
   GroupName=Pile_Bend   Selection=Yes   SectionCut=Yes   Steel=Yes   Concrete=Yes   Aluminum=Yes   ColdFormed=Yes   Stage=Yes   Bridge=Yes   AutoSeismic=No   AutoWind=No   SelDesSteel=No   SelDesAlum=No   SelDesCold=No   MassWeight=Yes   Color=Cyan
   GroupName=Beam   Selection=Yes   SectionCut=Yes   Steel=Yes   Concrete=Yes   Aluminum=Yes   ColdFormed=Yes   Stage=Yes   Bridge=Yes   AutoSeismic=No   AutoWind=No   SelDesSteel=No   SelDesAlum=No   SelDesCold=No   MassWeight=Yes   Color=Blue
   GroupName=Piles   Selection=Yes   SectionCut=Yes   Steel=Yes   Concrete=Yes   Aluminum=Yes   ColdFormed=Yes   Stage=Yes   Bridge=Yes   AutoSeismic=No   AutoWind=No   SelDesSteel=No   SelDesAlum=No   SelDesCold=No   MassWeight=Yes   Color=Green
   GroupName=Beams   Selection=Yes   SectionCut=Yes   Steel=Yes   Concrete=Yes   Aluminum=Yes   ColdFormed=Yes   Stage=Yes   Bridge=Yes   AutoSeismic=No   AutoWind=No   SelDesSteel=No   SelDesAlum=No   SelDesCold=No   MassWeight=Yes   Color=Cyan
 
TABLE:  "GROUPS 2 - ASSIGNMENTS"
 
TABLE:  "JOINT COORDINATES"
   Joint=453932   CoordSys=GLOBAL   CoordType=Cartesian   XorR=-9   Y=-5   Z=0   SpecialJt=No   GUID=a960e47c-e2e2-464a-8e05-b19640cd2f14
   Joint=453933   CoordSys=GLOBAL   CoordType=Cartesian   XorR=-9   Y=-3   Z=0   SpecialJt=No   GUID=c041b632-4737-44fe-bed3-e11c90ecbdf2
   Joint=453934   CoordSys=GLOBAL   CoordType=Cartesian   XorR=-6   Y=-5   Z=0   SpecialJt=No   GUID=52c9ccc0-3ffc-4f4b-9ff0-d5012111369c
   Joint=453935   CoordSys=GLOBAL   CoordType=Cartesian   XorR=-6   Y=-3   Z=0   SpecialJt=No   GUID=d5fb081b-18fe-44cc-b7e8-e2297e576d99
   Joint=453936   CoordSys=GLOBAL   CoordType=Cartesian   XorR=-3   Y=-5   Z=0   SpecialJt=No   GUID=1b9e6871-3333-4665-8c12-9c595426f1e5
   Joint=453937   CoordSys=GLOBAL   CoordType=Cartesian   XorR=-3   Y=-3   Z=0   SpecialJt=No   GUID=d8d98363-9556-4364-b764-a2d476e6019e
   Joint=453938   CoordSys=GLOBAL   CoordType=Cartesian   XorR=0   Y=-5   Z=0   SpecialJt=No   GUID=d62d8f3f-5fd4-4cfa-bd22-e603ca062cd9
   Joint=453939   CoordSys=GLOBAL   CoordType=Cartesian   XorR=0   Y=-3   Z=0   SpecialJt=No   GUID=f321c667-0151-4f92-b0b8-a8e14e04ec95
   Joint=453940   CoordSys=GLOBAL   CoordType=Cartesian   XorR=3   Y=-5   Z=0   SpecialJt=No   GUID=0e6c3752-86ba-407f-9bbf-606e9437a50f
   Joint=453941   CoordSys=GLOBAL   CoordType=Cartesian   XorR=3   Y=-3   Z=0   SpecialJt=No   GUID=6a34a739-b64f-4b7d-8612-87242ed4462c
   Joint=453942   CoordSys=GLOBAL   CoordType=Cartesian   XorR=6   Y=-5   Z=0   SpecialJt=No   GUID=5facf3a2-6b3d-4a95-a5f8-8014da53a9d9
   Joint=453943   CoordSys=GLOBAL   CoordType=Cartesian   XorR=6   Y=-3   Z=0   SpecialJt=No   GUID=19bec1cd-5c1b-43c4-a0b8-ccce6157828d
   Joint=453944   CoordSys=GLOBAL   CoordType=Cartesian   XorR=9   Y=-5   Z=0   SpecialJt=No   GUID=f12dcae3-d9da-4db7-9710-a217e72ca54a
   Joint=453945   CoordSys=GLOBAL   CoordType=Cartesian   XorR=9   Y=-3   Z=0   SpecialJt=No   GUID=401e7c38-731b-4e3c-97c6-6bdf583ff59f
   Joint=453946   CoordSys=GLOBAL   CoordType=Cartesian   XorR=-9   Y=3   Z=0   SpecialJt=No   GUID=6382fd2a-c91a-4238-a9ee-4f59ace6aa6d
   Joint=453947   CoordSys=GLOBAL   CoordType=Cartesian   XorR=-6   Y=3   Z=0   SpecialJt=No   GUID=ff5d9ed8-120d-40b7-ae32-1ba8ea6c5899
   Joint=453948   CoordSys=GLOBAL   CoordType=Cartesian   XorR=-3   Y=3   Z=0   SpecialJt=No   GUID=37364e8d-fd48-4700-8458-142dea9744d5
   Joint=453949   CoordSys=GLOBAL   CoordType=Cartesian   XorR=0   Y=3   Z=0   SpecialJt=No   GUID=5de68ec6-eb09-443c-a66a-9e4819087a67
   Joint=453950   CoordSys=GLOBAL   CoordType=Cartesian   XorR=3   Y=3   Z=0   SpecialJt=No   GUID=4e9d8479-e325-44da-8e2c-06ae28f9e043
   Joint=453951   CoordSys=GLOBAL   CoordType=Cartesian   XorR=6   Y=3   Z=0   SpecialJt=No   GUID=20943d8b-9132-4cbc-882c-a47dbd2e00ae
   Joint=453952   CoordSys=GLOBAL   CoordType=Cartesian   XorR=9   Y=3   Z=0   SpecialJt=No   GUID=effa17b6-3c94-48c7-94a4-69a9b77e16d1
   Joint=453953   CoordSys=GLOBAL   CoordType=Cartesian   XorR=-9   Y=5   Z=0   SpecialJt=No   GUID=a64ee0a3-a468-4802-85cb-d3d9dfa5eeea
   Joint=453954   CoordSys=GLOBAL   CoordType=Cartesian   XorR=-6   Y=5   Z=0   SpecialJt=No   GUID=62662d7d-9660-4ba5-85a3-2f23663787df
   Joint=453955   CoordSys=GLOBAL   CoordType=Cartesian   XorR=-3   Y=5   Z=0   SpecialJt=No   GUID=e8b712bd-7a57-449f-88ba-7b21f83efc32
   Joint=453956   CoordSys=GLOBAL   CoordType=Cartesian   XorR=0   Y=5   Z=0   SpecialJt=No   GUID=e488edcc-a3f5-47ad-846f-41946fabb474
   Joint=453957   CoordSys=GLOBAL   CoordType=Cartesian   XorR=3   Y=5   Z=0   SpecialJt=No   GUID=9d78a267-d4a7-4533-962f-d698f801dbb5
   Joint=453958   CoordSys=GLOBAL   CoordType=Cartesian   XorR=6   Y=5   Z=0   SpecialJt=No   GUID=58fd9e1c-8843-4041-b1f5-fdadcf866470
   Joint=453959   CoordSys=GLOBAL   CoordType=Cartesian   XorR=9   Y=5   Z=0   SpecialJt=No   GUID=44c4a306-9804-468b-b383-ec89f59c9010
   Joint=453960   CoordSys=GLOBAL   CoordType=Cartesian   XorR=-10   Y=-3   Z=0   SpecialJt=No   GUID=a934382b-1894-4a52-8371-d2d649554b45
   Joint=453961   CoordSys=GLOBAL   CoordType=Cartesian   XorR=-10   Y=3   Z=0   SpecialJt=No   GUID=579829d9-43e4-429a-ae97-9c2eca0a4d13
   Joint=453962   CoordSys=GLOBAL   CoordType=Cartesian   XorR=10   Y=-3   Z=0   SpecialJt=No   GUID=8f0b94e0-cd56-49f1-9182-ebfa675b22bc
   Joint=453963   CoordSys=GLOBAL   CoordType=Cartesian   XorR=10   Y=3   Z=0   SpecialJt=No   GUID=001820f1-095e-4283-a4c2-4f5085b94eaa
   Joint=453964   CoordSys=GLOBAL   CoordType=Cartesian   XorR=-9   Y=-3   Z=-3   SpecialJt=No   GUID=f34e0e08-dedc-40a2-8301-394f5ff89cba
   Joint=453965   CoordSys=GLOBAL   CoordType=Cartesian   XorR=-9   Y=-3   Z=-13.4180229476075   SpecialJt=No   GUID=fd9bf365-5c9f-4c8b-9aad-06e017aa659b
   Joint=453966   CoordSys=GLOBAL   CoordType=Cartesian   XorR=-9   Y=-3   Z=-39   SpecialJt=No   GUID=a8d1aba6-1676-48be-bc93-71e8bb1dbb07
   Joint=453967   CoordSys=GLOBAL   CoordType=Cartesian   XorR=-6   Y=-3   Z=-3   SpecialJt=No   GUID=0188a13c-7326-4470-a6a4-8656cc462e46
   Joint=453968   CoordSys=GLOBAL   CoordType=Cartesian   XorR=-6   Y=-3   Z=-13.4180229476075   SpecialJt=No   GUID=2243992b-eccf-408d-93d3-ae6d75b82867
   Joint=453969   CoordSys=GLOBAL   CoordType=Cartesian   XorR=-6   Y=-3   Z=-39   SpecialJt=No   GUID=e4aef0f9-d7a1-42b3-9c85-7fce790819d1
   Joint=453970   CoordSys=GLOBAL   CoordType=Cartesian   XorR=-3   Y=-3   Z=-3   SpecialJt=No   GUID=bcef8f83-7bba-4a65-b89c-bb5deeef6196
   Joint=453971   CoordSys=GLOBAL   CoordType=Cartesian   XorR=-3   Y=-3   Z=-13.4180229476075   SpecialJt=No   GUID=1b3df80d-1c24-451c-90a4-c1db638837b9
   Joint=453972   CoordSys=GLOBAL   CoordType=Cartesian   XorR=-3   Y=-3   Z=-39   SpecialJt=No   GUID=3267a804-4276-448b-be5f-b4fcfee62560
   Joint=453973   CoordSys=GLOBAL   CoordType=Cartesian   XorR=0   Y=-3   Z=-3   SpecialJt=No   GUID=a43b7ffb-2a36-47a5-8cad-fafad395f376
   Joint=453974   CoordSys=GLOBAL   CoordType=Cartesian   XorR=0   Y=-3   Z=-13.4180229476075   SpecialJt=No   GUID=4a67af9a-6fb1-4490-9a0c-094a0fa5f26c
   Joint=453975   CoordSys=GLOBAL   CoordType=Cartesian   XorR=0   Y=-3   Z=-39   SpecialJt=No   GUID=031e4d32-734a-4b4b-aa25-6709cb566153
   Joint=453976   CoordSys=GLOBAL   CoordType=Cartesian   XorR=3   Y=-3   Z=-3   SpecialJt=No   GUID=39d02180-0f36-4b86-806d-62339deae936
   Joint=453977   CoordSys=GLOBAL   CoordType=Cartesian   XorR=3   Y=-3   Z=-13.4180229476075   SpecialJt=No   GUID=5bd43120-c76e-445c-9149-e5f78a8815ef
   Joint=453978   CoordSys=GLOBAL   CoordType=Cartesian   XorR=3   Y=-3   Z=-39   SpecialJt=No   GUID=27fb60e7-8076-4689-bd1a-a2ef4c43992f
   Joint=453979   CoordSys=GLOBAL   CoordType=Cartesian   XorR=6   Y=-3   Z=-3   SpecialJt=No   GUID=840afea1-cbc4-43c6-94a6-84f527d1f177
   Joint=453980   CoordSys=GLOBAL   CoordType=Cartesian   XorR=6   Y=-3   Z=-13.4180229476075   SpecialJt=No   GUID=bc489aff-5695-4b5f-a580-59431012330e
   Joint=453981   CoordSys=GLOBAL   CoordType=Cartesian   XorR=6   Y=-3   Z=-39   SpecialJt=No   GUID=da57cd44-6ded-4954-8abe-16f99a759d5d
   Joint=453982   CoordSys=GLOBAL   CoordType=Cartesian   XorR=9   Y=-3   Z=-3   SpecialJt=No   GUID=9c397320-7496-44c9-8940-576fa52db923
   Joint=453983   CoordSys=GLOBAL   CoordType=Cartesian   XorR=9   Y=-3   Z=-13.4180229476075   SpecialJt=No   GUID=3f80fcac-eac1-43c5-92c9-73d34cd83f0a
   Joint=453984   CoordSys=GLOBAL   CoordType=Cartesian   XorR=9   Y=-3   Z=-39   SpecialJt=No   GUID=8a7dc662-e282-4ab2-83cd-815c7634f8c7
   Joint=453985   CoordSys=GLOBAL   CoordType=Cartesian   XorR=-9   Y=3   Z=-13.4180229476075   SpecialJt=No   GUID=46dc731d-7d4e-4217-95df-42a8e57b2dae
   Joint=453986   CoordSys=GLOBAL   CoordType=Cartesian   XorR=-9   Y=3   Z=-39   SpecialJt=No   GUID=9d41570c-33db-429a-a9f6-7dfaf6524255
   Joint=453987   CoordSys=GLOBAL   CoordType=Cartesian   XorR=-6   Y=3   Z=-13.4180229476075   SpecialJt=No   GUID=2e93b3de-9d8e-41c4-81e4-ce0ca32c6bc8
   Joint=453988   CoordSys=GLOBAL   CoordType=Cartesian   XorR=-6   Y=3   Z=-39   SpecialJt=No   GUID=167eb444-f8c8-445f-b979-4c03bca6154b
   Joint=453989   CoordSys=GLOBAL   CoordType=Cartesian   XorR=-3   Y=3   Z=-13.4180229476075   SpecialJt=No   GUID=7aca5ca6-85f9-4977-a904-c48b304be304
   Joint=453990   CoordSys=GLOBAL   CoordType=Cartesian   XorR=-3   Y=3   Z=-39   SpecialJt=No   GUID=5d627ea5-e78a-4b6a-bf39-434dc5009883
   Joint=453991   CoordSys=GLOBAL   CoordType=Cartesian   XorR=0   Y=3   Z=-13.4180229476075   SpecialJt=No   GUID=6713d807-d490-4091-a378-b657048dce6f
   Joint=453992   CoordSys=GLOBAL   CoordType=Cartesian   XorR=0   Y=3   Z=-39   SpecialJt=No   GUID=dc7f340b-4e31-4433-a350-3b9b7815c4f7
   Joint=453993   CoordSys=GLOBAL   CoordType=Cartesian   XorR=3   Y=3   Z=-13.4180229476075   SpecialJt=No   GUID=e1c774d7-ece3-49f3-bc82-fa3a41858cf7
   Joint=453994   CoordSys=GLOBAL   CoordType=Cartesian   XorR=3   Y=3   Z=-39   SpecialJt=No   GUID=0ff199d0-bb39-4415-85b2-321e8e1844b6
   Joint=453995   CoordSys=GLOBAL   CoordType=Cartesian   XorR=6   Y=3   Z=-13.4180229476075   SpecialJt=No   GUID=34303131-3e5f-400b-aa25-eaa979d41721
   Joint=453996   CoordSys=GLOBAL   CoordType=Cartesian   XorR=6   Y=3   Z=-39   SpecialJt=No   GUID=2739a4e8-123a-4664-8e6b-2b8034c9431e
   Joint=453997   CoordSys=GLOBAL   CoordType=Cartesian   XorR=9   Y=3   Z=-13.4180229476075   SpecialJt=No   GUID=6a4b4488-da78-4753-96d1-d3011e097bfd
   Joint=453998   CoordSys=GLOBAL   CoordType=Cartesian   XorR=9   Y=3   Z=-39   SpecialJt=No   GUID=dc16a790-bca7-4e79-b598-9dce49c1b8a3
   Joint=453999   CoordSys=GLOBAL   CoordType=Cartesian   XorR=-10   Y=-5   Z=0   SpecialJt=No   GUID=d8014858-1efb-413c-91a0-bdfd8cc73b27
   Joint=454000   CoordSys=GLOBAL   CoordType=Cartesian   XorR=10   Y=-5   Z=0   SpecialJt=No   GUID=f08cfafd-2a9d-482b-b03f-352420325497
   Joint=454001   CoordSys=GLOBAL   CoordType=Cartesian   XorR=-10   Y=5   Z=0   SpecialJt=No   GUID=386bac9b-0618-4c5d-b16f-1ec134752f61
   Joint=454002   CoordSys=GLOBAL   CoordType=Cartesian   XorR=10   Y=5   Z=0   SpecialJt=No   GUID=4718cf24-8167-494e-8a2e-04df049d0ad6
 
TABLE:  "JOINT PATTERN DEFINITIONS"
   Pattern=Default
 
TABLE:  "JOINT RESTRAINT ASSIGNMENTS"
   Joint=453965   U1=Yes   U2=Yes   U3=No   R1=Yes   R2=Yes   R3=Yes
   Joint=453966   U1=No   U2=No   U3=Yes   R1=No   R2=No   R3=No
   Joint=453968   U1=Yes   U2=Yes   U3=No   R1=Yes   R2=Yes   R3=Yes
   Joint=453969   U1=No   U2=No   U3=Yes   R1=No   R2=No   R3=No
   Joint=453971   U1=Yes   U2=Yes   U3=No   R1=Yes   R2=Yes   R3=Yes
   Joint=453972   U1=No   U2=No   U3=Yes   R1=No   R2=No   R3=No
   Joint=453974   U1=Yes   U2=Yes   U3=No   R1=Yes   R2=Yes   R3=Yes
   Joint=453975   U1=No   U2=No   U3=Yes   R1=No   R2=No   R3=No
   Joint=453977   U1=Yes   U2=Yes   U3=No   R1=Yes   R2=Yes   R3=Yes
   Joint=453978   U1=No   U2=No   U3=Yes   R1=No   R2=No   R3=No
   Joint=453980   U1=Yes   U2=Yes   U3=No   R1=Yes   R2=Yes   R3=Yes
   Joint=453981   U1=No   U2=No   U3=Yes   R1=No   R2=No   R3=No
   Joint=453983   U1=Yes   U2=Yes   U3=No   R1=Yes   R2=Yes   R3=Yes
   Joint=453984   U1=No   U2=No   U3=Yes   R1=No   R2=No   R3=No
   Joint=453985   U1=Yes   U2=Yes   U3=No   R1=Yes   R2=Yes   R3=Yes
   Joint=453986   U1=No   U2=No   U3=Yes   R1=No   R2=No   R3=No
   Joint=453987   U1=Yes   U2=Yes   U3=No   R1=Yes   R2=Yes   R3=Yes
   Joint=453988   U1=No   U2=No   U3=Yes   R1=No   R2=No   R3=No
   Joint=453989   U1=Yes   U2=Yes   U3=No   R1=Yes   R2=Yes   R3=Yes
   Joint=453990   U1=No   U2=No   U3=Yes   R1=No   R2=No   R3=No
   Joint=453991   U1=Yes   U2=Yes   U3=No   R1=Yes   R2=Yes   R3=Yes
   Joint=453992   U1=No   U2=No   U3=Yes   R1=No   R2=No   R3=No
   Joint=453993   U1=Yes   U2=Yes   U3=No   R1=Yes   R2=Yes   R3=Yes
   Joint=453994   U1=No   U2=No   U3=Yes   R1=No   R2=No   R3=No
   Joint=453995   U1=Yes   U2=Yes   U3=No   R1=Yes   R2=Yes   R3=Yes
   Joint=453996   U1=No   U2=No   U3=Yes   R1=No   R2=No   R3=No
   Joint=453997   U1=Yes   U2=Yes   U3=No   R1=Yes   R2=Yes   R3=Yes
   Joint=453998   U1=No   U2=No   U3=Yes   R1=No   R2=No   R3=No
 
TABLE:  "LOAD CASE DEFINITIONS"
   Case=DEAD   Type=LinStatic   InitialCond=Zero   DesTypeOpt="Prog Det"   DesignType=Dead   DesActOpt="Prog Det"   DesignAct=Non-Composite   AutoType=None   RunCase=Yes
   Case=MODAL   Type=LinModal   InitialCond=Zero   DesTypeOpt="Prog Det"   DesignType=Other   DesActOpt="Prog Det"   DesignAct=Other   AutoType=None   RunCase=Yes
   Case=LL   Type=LinStatic   InitialCond=Zero   DesTypeOpt="Prog Det"   DesignType=Live   DesActOpt="Prog Det"   DesignAct="Short-Term Composite"   AutoType=None   RunCase=Yes
 
TABLE:  "LOAD PATTERN DEFINITIONS"
   LoadPat=DEAD   DesignType=Dead   SelfWtMult=1
   LoadPat=LL   DesignType=Live   SelfWtMult=0
 
TABLE:  "MASS SOURCE"
   MassSource=MSSSRC1   Elements=Yes   Masses=Yes   Loads=No   IsDefault=Yes
 
TABLE:  "MATERIAL PROPERTIES 01 - GENERAL"
   Material=A706   Type=Rebar   SymType=Uniaxial   TempDepend=No   Color=Gray8Dark   GUID=30185aab-1311-4f4b-9ffe-ddad707d22d9   Notes="ASTM A706 added 8/23/2025 4:27:57 PM"
   Material=BTCT   Type=Concrete   SymType=Isotropic   TempDepend=No   Color=Blue   Notes="Concrete added 24-Feb-23 16:30:01"
   Material=BTCTCOC   Type=Concrete   SymType=Isotropic   TempDepend=No   Color=Blue   Notes="Concrete added 24-Feb-23 16:30:01"
   Material=Steel   Type=Steel   SymType=Isotropic   TempDepend=No   Color=Magenta   GUID=2f952889-4898-4964-97a4-5fb5c5008d33   Notes="Steel added 8/24/2025 2:51:43 PM"
   Material=Tendon   Type=Tendon   SymType=Uniaxial   TempDepend=No   Color=Yellow   GUID=7dfcd093-823e-4b3a-b96f-35d5bcaf456f   Notes="Tendon added 8/24/2025 2:51:43 PM"
 
TABLE:  "MATERIAL PROPERTIES 02 - BASIC MECHANICAL PROPERTIES"
   Material=A706   UnitWeight=7.84904757236607   UnitMass=0.800380070686609   E1=20389019.1580383   A1=1.16999994421006E-05
   Material=BTCT   UnitWeight=2.40276966501002   UnitMass=0.245014307353044   E1=2900000   G12=1208333.33333333   U12=0.2   A1=9.9E-06
   Material=BTCTCOC   UnitWeight=2.40276966501002   UnitMass=0.245014307353044   E1=3800000000   G12=1583333333.33333   U12=0.2   A1=9.9E-06
   Material=Steel   UnitWeight=7.84904757236607   UnitMass=0.800380070686609   E1=20389019.1580383   G12=7841930.44539935   U12=0.3   A1=1.17E-05
   Material=Tendon   UnitWeight=7.84904757236607   UnitMass=0.800380070686609   E1=20037484.3449687   A1=1.16999994421006E-05
 
TABLE:  "MATERIAL PROPERTIES 03A - STEEL DATA"
   Material=Steel   Fy=35153.4813069626   Fu=45699.5256990514   EffFy=38668.8294376589   EffFu=50269.4782689565   SSCurveOpt=Simple   SSHysType=Kinematic   SHard=0.015   SMax=0.11   SRup=0.17   FinalSlope=-0.1   CoupModType="Von Mises"
 
TABLE:  "MATERIAL PROPERTIES 03B - CONCRETE DATA"
   Material=BTCT   Fc=2812.27850455701   eFc=2812.27850455701   LtWtConc=No   SSCurveOpt=Mander   SSHysType=Takeda   SFc=0.002   SCap=0.005   FinalSlope=-0.1   FAngle=0   DAngle=0   CoupModType="Modified Darwin-Pecknold"
   Material=BTCTCOC   Fc=2812.27850455701   eFc=2812.27850455701   LtWtConc=No   SSCurveOpt=Mander   SSHysType=Takeda   SFc=0.002   SCap=0.005   FinalSlope=-0.1   FAngle=0   DAngle=0   CoupModType="Modified Darwin-Pecknold"
 
TABLE:  "MATERIAL PROPERTIES 03E - REBAR DATA"
   Material=A706   Fy=42184.1775683551   Fu=56245.5700911402   EffFy=46402.5953251907   EffFu=61870.1271002542   SSCurveOpt=Simple   SSHysType=Kinematic   SHard=0.011   SCap=0.11   FinalSlope=-0.1   UseCTDef=No   CoupModType="Von Mises"
 
TABLE:  "MATERIAL PROPERTIES 03F - TENDON DATA"
   Material=Tendon   Fy=172322.365366731   Fu=189828.799057598   SSCurveOpt="270 ksi"   SSHysType=Kinematic   FinalSlope=-0.1   CoupModType="Von Mises"
 
TABLE:  "MATERIAL PROPERTIES 03J - COUPLED NONLINEAR VON MISES DATA"
   Material=A706   YieldStress=46402.5953251907   LinIsoHard=No   LinKinHard=No   NLIsoSaHard=No
   Material=Steel   YieldStress=38668.8294376589   LinIsoHard=No   LinKinHard=No   NLIsoSaHard=No
   Material=Tendon   YieldStress=172322.365366731   LinIsoHard=No   LinKinHard=No   NLIsoSaHard=No
 
TABLE:  "MATERIAL PROPERTIES 06 - DAMPING PARAMETERS"
   Material=A706   ModalRatio=0   VisMass=0   VisStiff=0   HysMass=0   HysStiff=0
   Material=BTCT   ModalRatio=0   VisMass=0   VisStiff=0   HysMass=0   HysStiff=0
   Material=BTCTCOC   ModalRatio=0   VisMass=0   VisStiff=0   HysMass=0   HysStiff=0
   Material=Steel   ModalRatio=0   VisMass=0   VisStiff=0   HysMass=0   HysStiff=0
   Material=Tendon   ModalRatio=0   VisMass=0   VisStiff=0   HysMass=0   HysStiff=0
 
TABLE:  "MATERIAL PROPERTIES 09 - ACCEPTANCE CRITERIA"
   Material=A706   IOTens=0.01   LSTens=0.02   CPTens=0.05   IOComp=-0.005   LSComp=-0.01   CPComp=-0.02
   Material=BTCT   IOTens=0.01   LSTens=0.02   CPTens=0.05   IOComp=-0.003   LSComp=-0.006   CPComp=-0.015   IgnoreTens=Yes
   Material=BTCTCOC   IOTens=0.01   LSTens=0.02   CPTens=0.05   IOComp=-0.003   LSComp=-0.006   CPComp=-0.015   IgnoreTens=Yes
   Material=Steel   IOTens=0.01   LSTens=0.02   CPTens=0.05   IOComp=-0.005   LSComp=-0.01   CPComp=-0.02
   Material=Tendon   IOTens=0.015   LSTens=0.023   CPTens=0.03   IOComp=-0.015   LSComp=-0.023   CPComp=-0.03
 
TABLE:  "OPTIONS - COLORS - DISPLAY"
   DeviceType=Screen   Points=Blue   LinesFrame=Blue   LinesFrmDL=Blue   LinesCable=Green   LinesTendon=Green   SpringLinks=Green   Restraints=Green   Releases=Green   Axes=Cyan   Text=Black   ShadowLines=Gray8Dark   GuideLines=Gray8Dark _
        Highlight=Red   Selection=10504778   AreaFillBot=Red   AreaFillTop=16744703   AreaFillSd=Red   AreaEdge=DarkRed   SolidF1=Red   SolidF2=Blue   SolidF3=Green   SolidF4=Yellow   SolidF5=White   SolidF6=Cyan   SolidEdge=DarkRed _
        Floor=Gray4   Background=White   BGLowLeft=White   BGLowRight=White   BGUpRight=White   Darkness=0.5
   DeviceType=Printer   Points=Gray8Dark   LinesFrame=Black   LinesFrmDL=Gray4   LinesCable=Black   LinesTendon=Black   SpringLinks=Gray8Dark   Restraints=Gray8Dark   Releases=Gray4   Axes=Black   Text=Black   ShadowLines=Gray4 _
        GuideLines=Gray4   Highlight=Black   Selection=Black   AreaFillBot=Gray4   AreaFillTop=Gray8Dark   AreaFillSd=Gray4   AreaEdge=Black   SolidF1=Gray1Light   SolidF2=Gray2   SolidF3=Gray3   SolidF4=Gray4   SolidF5=Gray5 _
        SolidF6=Gray6   SolidEdge=Black   Floor=Gray4   Background=White   BGLowLeft=White   BGLowRight=White   BGUpRight=White   Darkness=0.5
   DeviceType="Color Printer"   Points=Blue   LinesFrame=Blue   LinesFrmDL=Blue   LinesCable=Green   LinesTendon=Green   SpringLinks=Green   Restraints=Green   Releases=Green   Axes=Cyan   Text=Black   ShadowLines=Gray8Dark _
        GuideLines=Gray8Dark   Highlight=Red   Selection=10504778   AreaFillBot=Red   AreaFillTop=16744703   AreaFillSd=Red   AreaEdge=DarkRed   SolidF1=Red   SolidF2=Blue   SolidF3=Green   SolidF4=Yellow   SolidF5=White   SolidF6=Cyan _
        SolidEdge=DarkRed   Floor=Gray4   Background=White   BGLowLeft=White   BGLowRight=White   BGUpRight=White   Darkness=0.5
 
TABLE:  "OPTIONS - COLORS - OUTPUT"
   DeviceType=Screen   Contour1=13107400   Contour2=6553828   Contour3=Red   Contour4=16639   Contour5=Orange   Contour6=43775   Contour7=54527   Contour8=Yellow   Contour9=65408   Contour10=Green   Contour11=8453888   Contour12=Cyan _
        Contour13=16755200   Contour14=16733440   Contour15=Blue   Transpare=0.5   Ratio1=Cyan   Ratio2=Green   Ratio3=Yellow   Ratio4=Orange   Ratio5=Red   RatioNotD=Gray4   RatioNotC=Red   RatioVal1=0.5   RatioVal2=0.7   RatioVal3=0.9 _
        RatioVal4=1   DFillPos=Blue   DFillNeg=Red   DFillRPos=Green   DFillRNeg=Green
   DeviceType=Printer   Contour1=Black   Contour2=3158064   Contour3=4210752   Contour4=5263440   Contour5=6316128   Contour6=7368816   Contour7=Gray8Dark   Contour8=Gray7   Contour9=Gray6   Contour10=Gray5   Contour11=Gray4 _
        Contour12=Gray3   Contour13=Gray2   Contour14=Gray1Light   Contour15=White   Transpare=0   Ratio1=Gray2   Ratio2=Gray4   Ratio3=Gray8Dark   Ratio4=4210752   Ratio5=Black   RatioNotD=Gray4   RatioNotC=Black   RatioVal1=0.5 _
        RatioVal2=0.7   RatioVal3=0.9   RatioVal4=1   DFillPos=Gray8Dark   DFillNeg=Gray8Dark   DFillRPos=4210752   DFillRNeg=4210752
   DeviceType="Color Printer"   Contour1=13107400   Contour2=6553828   Contour3=Red   Contour4=16639   Contour5=Orange   Contour6=43775   Contour7=54527   Contour8=Yellow   Contour9=65408   Contour10=Green   Contour11=8453888 _
        Contour12=Cyan   Contour13=16755200   Contour14=16733440   Contour15=Blue   Transpare=0   Ratio1=Cyan   Ratio2=Green   Ratio3=Yellow   Ratio4=Orange   Ratio5=Red   RatioNotD=Gray4   RatioNotC=Red   RatioVal1=0.5   RatioVal2=0.7 _
        RatioVal3=0.9   RatioVal4=1   DFillPos=Blue   DFillNeg=Red   DFillRPos=Green   DFillRNeg=Green
 
TABLE:  "OVERWRITES - CONCRETE DESIGN - CSA-A233-14"
   Frame=509758   DesignSect="Program Determined"   FrameType="Program Determined"   RLLF=0   XLMajor=0   XLMinor=0   XKMajor=0   XKMinor=0   CmMajor=0   CmMinor=0   DbMajor=0   DbMinor=0   DsMajor=0   DsMinor=0   Rd=0   Ro=0   MaxAggSize=0
   Frame=509759   DesignSect="Program Determined"   FrameType="Program Determined"   RLLF=0   XLMajor=0   XLMinor=0   XKMajor=0   XKMinor=0   CmMajor=0   CmMinor=0   DbMajor=0   DbMinor=0   DsMajor=0   DsMinor=0   Rd=0   Ro=0   MaxAggSize=0
   Frame=509760   DesignSect="Program Determined"   FrameType="Program Determined"   RLLF=0   XLMajor=0   XLMinor=0   XKMajor=0   XKMinor=0   CmMajor=0   CmMinor=0   DbMajor=0   DbMinor=0   DsMajor=0   DsMinor=0   Rd=0   Ro=0   MaxAggSize=0
   Frame=509761   DesignSect="Program Determined"   FrameType="Program Determined"   RLLF=0   XLMajor=0   XLMinor=0   XKMajor=0   XKMinor=0   CmMajor=0   CmMinor=0   DbMajor=0   DbMinor=0   DsMajor=0   DsMinor=0   Rd=0   Ro=0   MaxAggSize=0
   Frame=509762   DesignSect="Program Determined"   FrameType="Program Determined"   RLLF=0   XLMajor=0   XLMinor=0   XKMajor=0   XKMinor=0   CmMajor=0   CmMinor=0   DbMajor=0   DbMinor=0   DsMajor=0   DsMinor=0   Rd=0   Ro=0   MaxAggSize=0
   Frame=509763   DesignSect="Program Determined"   FrameType="Program Determined"   RLLF=0   XLMajor=0   XLMinor=0   XKMajor=0   XKMinor=0   CmMajor=0   CmMinor=0   DbMajor=0   DbMinor=0   DsMajor=0   DsMinor=0   Rd=0   Ro=0   MaxAggSize=0
   Frame=509764   DesignSect="Program Determined"   FrameType="Program Determined"   RLLF=0   XLMajor=0   XLMinor=0   XKMajor=0   XKMinor=0   CmMajor=0   CmMinor=0   DbMajor=0   DbMinor=0   DsMajor=0   DsMinor=0   Rd=0   Ro=0   MaxAggSize=0
   Frame=509765   DesignSect="Program Determined"   FrameType="Program Determined"   RLLF=0   XLMajor=0   XLMinor=0   XKMajor=0   XKMinor=0   CmMajor=0   CmMinor=0   DbMajor=0   DbMinor=0   DsMajor=0   DsMinor=0   Rd=0   Ro=0   MaxAggSize=0
   Frame=509766   DesignSect="Program Determined"   FrameType="Program Determined"   RLLF=0   XLMajor=0   XLMinor=0   XKMajor=0   XKMinor=0   CmMajor=0   CmMinor=0   DbMajor=0   DbMinor=0   DsMajor=0   DsMinor=0   Rd=0   Ro=0   MaxAggSize=0
   Frame=509767   DesignSect="Program Determined"   FrameType="Program Determined"   RLLF=0   XLMajor=0   XLMinor=0   XKMajor=0   XKMinor=0   CmMajor=0   CmMinor=0   DbMajor=0   DbMinor=0   DsMajor=0   DsMinor=0   Rd=0   Ro=0   MaxAggSize=0
   Frame=509768   DesignSect="Program Determined"   FrameType="Program Determined"   RLLF=0   XLMajor=0   XLMinor=0   XKMajor=0   XKMinor=0   CmMajor=0   CmMinor=0   DbMajor=0   DbMinor=0   DsMajor=0   DsMinor=0   Rd=0   Ro=0   MaxAggSize=0
   Frame=509769   DesignSect="Program Determined"   FrameType="Program Determined"   RLLF=0   XLMajor=0   XLMinor=0   XKMajor=0   XKMinor=0   CmMajor=0   CmMinor=0   DbMajor=0   DbMinor=0   DsMajor=0   DsMinor=0   Rd=0   Ro=0   MaxAggSize=0
   Frame=509770   DesignSect="Program Determined"   FrameType="Program Determined"   RLLF=0   XLMajor=0   XLMinor=0   XKMajor=0   XKMinor=0   CmMajor=0   CmMinor=0   DbMajor=0   DbMinor=0   DsMajor=0   DsMinor=0   Rd=0   Ro=0   MaxAggSize=0
   Frame=509771   DesignSect="Program Determined"   FrameType="Program Determined"   RLLF=0   XLMajor=0   XLMinor=0   XKMajor=0   XKMinor=0   CmMajor=0   CmMinor=0   DbMajor=0   DbMinor=0   DsMajor=0   DsMinor=0   Rd=0   Ro=0   MaxAggSize=0
   Frame=509772   DesignSect="Program Determined"   FrameType="Program Determined"   RLLF=0   XLMajor=0   XLMinor=0   XKMajor=0   XKMinor=0   CmMajor=0   CmMinor=0   DbMajor=0   DbMinor=0   DsMajor=0   DsMinor=0   Rd=0   Ro=0   MaxAggSize=0
   Frame=509773   DesignSect="Program Determined"   FrameType="Program Determined"   RLLF=0   XLMajor=0   XLMinor=0   XKMajor=0   XKMinor=0   CmMajor=0   CmMinor=0   DbMajor=0   DbMinor=0   DsMajor=0   DsMinor=0   Rd=0   Ro=0   MaxAggSize=0
   Frame=509774   DesignSect="Program Determined"   FrameType="Program Determined"   RLLF=0   XLMajor=0   XLMinor=0   XKMajor=0   XKMinor=0   CmMajor=0   CmMinor=0   DbMajor=0   DbMinor=0   DsMajor=0   DsMinor=0   Rd=0   Ro=0   MaxAggSize=0
   Frame=509775   DesignSect="Program Determined"   FrameType="Program Determined"   RLLF=0   XLMajor=0   XLMinor=0   XKMajor=0   XKMinor=0   CmMajor=0   CmMinor=0   DbMajor=0   DbMinor=0   DsMajor=0   DsMinor=0   Rd=0   Ro=0   MaxAggSize=0
   Frame=509776   DesignSect="Program Determined"   FrameType="Program Determined"   RLLF=0   XLMajor=0   XLMinor=0   XKMajor=0   XKMinor=0   CmMajor=0   CmMinor=0   DbMajor=0   DbMinor=0   DsMajor=0   DsMinor=0   Rd=0   Ro=0   MaxAggSize=0
   Frame=509777   DesignSect="Program Determined"   FrameType="Program Determined"   RLLF=0   XLMajor=0   XLMinor=0   XKMajor=0   XKMinor=0   CmMajor=0   CmMinor=0   DbMajor=0   DbMinor=0   DsMajor=0   DsMinor=0   Rd=0   Ro=0   MaxAggSize=0
# ... 30 like lines cut
 
TABLE:  "PREFERENCES - ALUMINUM DESIGN - AA 2015"
   THDesign=Envelopes   SRatioLimit=1   Provision=ASD   LatFact=1.33333333333333   UseLatFact=No   Bridge=No   OmegaTy=1.65   OmegaTr=1.95   OmegaC=1.65   OmegaBo=1.65   OmegaBr=1.95   OmegaVo=1.65   OmegaVr=1.95
 
TABLE:  "PREFERENCES - COLD FORMED DESIGN - AISI-ASD96"
   THDesign=Envelopes   FrameType="Braced Frame"   SRatioLimit=1   MaxIter=1   OmegaBS=1.67   OmegaBUS=1.67   OmegaBLTB=1.67   OmegaVS=1.67   OmegaVNS=1.5   OmegaT=1.67   OmegaC=1.8
 
TABLE:  "PREFERENCES - CONCRETE DESIGN - CSA-A233-14"
   THDesign=Envelopes   NumCurves=24   NumPoints=11   MinEccen=Yes   BCCDesign=Yes   CTorsion=Yes   PatLLF=0.75   UFLimit=0.95   PhiS=0.85   PhiC=0.65
 
TABLE:  "PREFERENCES - CONCRETE SHELL DESIGN - EUROCODE 2-2004"
   Country="CEN Default"   GammaS=1.15   GammaC=1.5   AlphaCC=1
 
TABLE:  "PREFERENCES - DIMENSIONAL"
   MergeTol=0.001   FineGrid=0.25   Nudge=0.25   SelectTol=3   SnapTol=12   SLineThick=1   PLineThick=4   MaxFont=8   MinFont=3   AutoZoom=10   ShrinkFact=70   TextFileLen=240
 
TABLE:  "PREFERENCES - STEEL DESIGN - AISC 360-10"
   THDesign=Envelopes   FrameType=SMF   PatLLF=0.75   SRatioLimit=0.95   MaxIter=1   SDC=D   SeisCode=No   SeisLoad=No   ImpFactor=1   SystemRho=1   SystemSds=0.5   SystemR=8   SystemCd=5.5   Omega0=3   Provision=LRFD _
        AMethod="Direct Analysis"   SOMethod="General 2nd Order"   SRMethod="Tau-b Fixed"   NLCoeff=0.002   PhiB=0.9   PhiC=0.9   PhiTY=0.9   PhiTF=0.75   PhiV=0.9   PhiVRolledI=1   PhiVT=0.9   PlugWeld=Yes   HSSWelding=ERW   HSSReduceT=No _
        CheckDefl=No   DLRat=120   SDLAndLLRat=120   LLRat=360   TotalRat=240   NetRat=240
 
TABLE:  "PROGRAM CONTROL"
   ProgramName=SAP2000   Version=24.0.0   CurrUnits="Tonf, m, C"   SteelCode="AISC 360-10"   ConcCode="CSA A23.3-14"   AlumCode="AA 2015"   ColdCode=AISI-ASD96   RegenHinge=Yes
 
TABLE:  "PROJECT INFORMATION"
   Item="Company Name"   Data=po
   Item="Client Name"
   Item="Project Name"
   Item="Project Number"
   Item="Model Name"
   Item="Model Description"
   Item="Revision Number"
   Item="Frame Type"
   Item=Engineer
   Item=Checker
   Item=Supervisor
   Item="Issue Code"
   Item="Design Code"
 
TABLE:  "REBAR SIZES"
   RebarID=#2   Area=3.2258E-05   Diameter=0.00635
   RebarID=#3   Area=7.09675996154547E-05   Diameter=0.009525
   RebarID=#4   Area=0.000129032001922727   Diameter=0.0127
   RebarID=#5   Area=0.000199999601538181   Diameter=0.015875
   RebarID=#6   Area=0.000283870398461819   Diameter=0.01905
   RebarID=#7   Area=0.000387096015381813   Diameter=0.022225
   RebarID=#8   Area=0.000509676413843632   Diameter=0.0254
   RebarID=#9   Area=0.00064516   Diameter=0.0286512005329132
   RebarID=#10   Area=0.00081935318769455   Diameter=0.0322579995155334
   RebarID=#11   Area=0.00100644956308365   Diameter=0.0358139991521835
   RebarID=#14   Area=0.00145161   Diameter=0.0430021989583969
   RebarID=#18   Area=0.00258064   Diameter=0.0573277992248535
   RebarID=10M   Area=0.000100000004162606   Diameter=0.0113000003604438
   RebarID=15M   Area=0.000200000008325212   Diameter=0.0160000002402959
   RebarID=20M   Area=0.000300000012487818   Diameter=0.0195000002928606
   RebarID=25M   Area=0.000500000020813031   Diameter=0.0252000011414055
   RebarID=30M   Area=0.000700000029138243   Diameter=0.0299000000675832
   RebarID=35M   Area=0.00100000004162606   Diameter=0.0357000012990997
   RebarID=45M   Area=0.00150000006243909   Diameter=0.0437000014192476
   RebarID=55M   Area=0.00250000010406515   Diameter=0.056400002372922
   RebarID=6d   Area=2.83000004150781E-05   Diameter=0.00600000009011096
   RebarID=8d   Area=5.03000013308514E-05   Diameter=0.00800000012014795
   RebarID=10d   Area=7.85000032676458E-05   Diameter=0.0100000001501849
   RebarID=12d   Area=0.000113000004703745   Diameter=0.0120000001802219
   RebarID=14d   Area=0.000154000006410413   Diameter=0.0140000002102589
   RebarID=16d   Area=0.000201000008366838   Diameter=0.0160000002402959
   RebarID=20d   Area=0.000314000013070583   Diameter=0.0200000003003699
   RebarID=25d   Area=0.000491000020438396   Diameter=0.0250000003754623
   RebarID=26d   Area=0.000531000022103439   Diameter=0.0260000003904808
   RebarID=28d   Area=0.000616000025641654   Diameter=0.0280000004205178
   RebarID=N12   Area=0.000113000004703745   Diameter=0.0120000001802219
   RebarID=N16   Area=0.000201000008366838   Diameter=0.0160000002402959
   RebarID=N20   Area=0.000314000013070583   Diameter=0.0200000003003699
   RebarID=N24   Area=0.00045200001881498   Diameter=0.0240000003604438
   RebarID=N28   Area=0.000616000025641654   Diameter=0.0280000004205178
   RebarID=N32   Area=0.000804000033467353   Diameter=0.0320000004805918
   RebarID=N36   Area=0.00102000004245858   Diameter=0.0360000005406658
 
TABLE:  "SOLID PROPERTY DEFINITIONS"
   SolidProp=Solid1   Material=BTCT   MatAngleA=0   MatAngleB=0   MatAngleC=0   InComp=Yes   Color=Gray8Dark
 
END TABLE DATA
