File D:\ResearchLab\02_Projects\02_Projects\Tap chi XD_SFOA\code\SOO_MPJ\MPJ_Sap\SOO_Displacement_W09\MPJ_9.$2k was saved on m/d/yy at h:mm:ss
 
TABLE:  "ACTIVE DEGREES OF FREEDOM"
   UX=Yes   UY=Yes   UZ=Yes   RX=Yes   RY=Yes   RZ=Yes
 
TABLE:  "ANALYSIS OPTIONS"
   Solver=Advanced   SolverProc=Auto   Force32Bit=No   StiffCase=None   GeomMod=None   HingeOpt="In Elements"   NumAThreads=0   MaxFileSize=0   NumDThreads=0   NumRThreads=0   UseMMFiles="Program Determined"   AllowDiff=No
 
TABLE:  "AREA AUTO MESH ASSIGNMENTS"
   Area=217684   MeshType="Number of Elements"   MeshGroup=ALL   Number1=3   Number2=3   LocalEdge=No   LocalFace=No   SuppEdge=No   SuppFace=No   SubMesh=No
   Area=217685   MeshType="Number of Elements"   MeshGroup=ALL   Number1=3   Number2=3   LocalEdge=No   LocalFace=No   SuppEdge=No   SuppFace=No   SubMesh=No
   Area=217686   MeshType="Number of Elements"   MeshGroup=ALL   Number1=3   Number2=3   LocalEdge=No   LocalFace=No   SuppEdge=No   SuppFace=No   SubMesh=No
   Area=217687   MeshType="Number of Elements"   MeshGroup=ALL   Number1=3   Number2=3   LocalEdge=No   LocalFace=No   SuppEdge=No   SuppFace=No   SubMesh=No
   Area=217688   MeshType="Number of Elements"   MeshGroup=ALL   Number1=3   Number2=3   LocalEdge=No   LocalFace=No   SuppEdge=No   SuppFace=No   SubMesh=No
   Area=217689   MeshType="Number of Elements"   MeshGroup=ALL   Number1=3   Number2=3   LocalEdge=No   LocalFace=No   SuppEdge=No   SuppFace=No   SubMesh=No
   Area=217690   MeshType="Number of Elements"   MeshGroup=ALL   Number1=3   Number2=3   LocalEdge=No   LocalFace=No   SuppEdge=No   SuppFace=No   SubMesh=No
   Area=217691   MeshType="Number of Elements"   MeshGroup=ALL   Number1=3   Number2=3   LocalEdge=No   LocalFace=No   SuppEdge=No   SuppFace=No   SubMesh=No
   Area=217692   MeshType="Number of Elements"   MeshGroup=ALL   Number1=3   Number2=3   LocalEdge=No   LocalFace=No   SuppEdge=No   SuppFace=No   SubMesh=No
   Area=217693   MeshType="Number of Elements"   MeshGroup=ALL   Number1=3   Number2=3   LocalEdge=No   LocalFace=No   SuppEdge=No   SuppFace=No   SubMesh=No
   Area=217694   MeshType="Number of Elements"   MeshGroup=ALL   Number1=3   Number2=3   LocalEdge=No   LocalFace=No   SuppEdge=No   SuppFace=No   SubMesh=No
   Area=217695   MeshType="Number of Elements"   MeshGroup=ALL   Number1=3   Number2=3   LocalEdge=No   LocalFace=No   SuppEdge=No   SuppFace=No   SubMesh=No
   Area=217696   MeshType="Number of Elements"   MeshGroup=ALL   Number1=3   Number2=3   LocalEdge=No   LocalFace=No   SuppEdge=No   SuppFace=No   SubMesh=No
   Area=217697   MeshType="Number of Elements"   MeshGroup=ALL   Number1=3   Number2=3   LocalEdge=No   LocalFace=No   SuppEdge=No   SuppFace=No   SubMesh=No
   Area=217698   MeshType="Number of Elements"   MeshGroup=ALL   Number1=3   Number2=3   LocalEdge=No   LocalFace=No   SuppEdge=No   SuppFace=No   SubMesh=No
   Area=217699   MeshType="Number of Elements"   MeshGroup=ALL   Number1=3   Number2=3   LocalEdge=No   LocalFace=No   SuppEdge=No   SuppFace=No   SubMesh=No
   Area=217700   MeshType="Number of Elements"   MeshGroup=ALL   Number1=3   Number2=3   LocalEdge=No   LocalFace=No   SuppEdge=No   SuppFace=No   SubMesh=No
   Area=217701   MeshType="Number of Elements"   MeshGroup=ALL   Number1=3   Number2=3   LocalEdge=No   LocalFace=No   SuppEdge=No   SuppFace=No   SubMesh=No
   Area=217702   MeshType="Number of Elements"   MeshGroup=ALL   Number1=3   Number2=3   LocalEdge=No   LocalFace=No   SuppEdge=No   SuppFace=No   SubMesh=No
   Area=217703   MeshType="Number of Elements"   MeshGroup=ALL   Number1=3   Number2=3   LocalEdge=No   LocalFace=No   SuppEdge=No   SuppFace=No   SubMesh=No
# ... 10 like lines cut
 
TABLE:  "AREA LOADS - UNIFORM"
   Area=217684   LoadPat=LL   CoordSys=GLOBAL   Dir=Gravity   UnifLoad=1.00034158457019
   Area=217685   LoadPat=LL   CoordSys=GLOBAL   Dir=Gravity   UnifLoad=1.00034158457019
   Area=217686   LoadPat=LL   CoordSys=GLOBAL   Dir=Gravity   UnifLoad=1.00034158457019
   Area=217687   LoadPat=LL   CoordSys=GLOBAL   Dir=Gravity   UnifLoad=1.00034158457019
   Area=217688   LoadPat=LL   CoordSys=GLOBAL   Dir=Gravity   UnifLoad=1.00034158457019
   Area=217689   LoadPat=LL   CoordSys=GLOBAL   Dir=Gravity   UnifLoad=1.00034158457019
   Area=217690   LoadPat=LL   CoordSys=GLOBAL   Dir=Gravity   UnifLoad=1.00034158457019
   Area=217691   LoadPat=LL   CoordSys=GLOBAL   Dir=Gravity   UnifLoad=1.00034158457019
   Area=217692   LoadPat=LL   CoordSys=GLOBAL   Dir=Gravity   UnifLoad=1.00034158457019
   Area=217693   LoadPat=LL   CoordSys=GLOBAL   Dir=Gravity   UnifLoad=1.00034158457019
   Area=217694   LoadPat=LL   CoordSys=GLOBAL   Dir=Gravity   UnifLoad=1.00034158457019
   Area=217695   LoadPat=LL   CoordSys=GLOBAL   Dir=Gravity   UnifLoad=1.00034158457019
   Area=217696   LoadPat=LL   CoordSys=GLOBAL   Dir=Gravity   UnifLoad=1.00034158457019
   Area=217697   LoadPat=LL   CoordSys=GLOBAL   Dir=Gravity   UnifLoad=1.00034158457019
   Area=217698   LoadPat=LL   CoordSys=GLOBAL   Dir=Gravity   UnifLoad=1.00034158457019
   Area=217699   LoadPat=LL   CoordSys=GLOBAL   Dir=Gravity   UnifLoad=1.00034158457019
   Area=217700   LoadPat=LL   CoordSys=GLOBAL   Dir=Gravity   UnifLoad=1.00034158457019
   Area=217701   LoadPat=LL   CoordSys=GLOBAL   Dir=Gravity   UnifLoad=1.00034158457019
   Area=217702   LoadPat=LL   CoordSys=GLOBAL   Dir=Gravity   UnifLoad=1.00034158457019
   Area=217703   LoadPat=LL   CoordSys=GLOBAL   Dir=Gravity   UnifLoad=1.00034158457019
# ... 10 like lines cut
 
TABLE:  "AREA SECTION ASSIGNMENTS"
   Area=217684   Section=Deck   MatProp=Default
   Area=217685   Section=Deck   MatProp=Default
   Area=217686   Section=Deck   MatProp=Default
   Area=217687   Section=Deck   MatProp=Default
   Area=217688   Section=Deck   MatProp=Default
   Area=217689   Section=Deck   MatProp=Default
   Area=217690   Section=Deck   MatProp=Default
   Area=217691   Section=Deck   MatProp=Default
   Area=217692   Section=Deck   MatProp=Default
   Area=217693   Section=Deck   MatProp=Default
   Area=217694   Section=Deck   MatProp=Default
   Area=217695   Section=Deck   MatProp=Default
   Area=217696   Section=Deck   MatProp=Default
   Area=217697   Section=Deck   MatProp=Default
   Area=217698   Section=Deck   MatProp=Default
   Area=217699   Section=Deck   MatProp=Default
   Area=217700   Section=Deck   MatProp=Default
   Area=217701   Section=Deck   MatProp=Default
   Area=217702   Section=Deck   MatProp=Default
   Area=217703   Section=Deck   MatProp=Default
# ... 10 like lines cut
 
TABLE:  "AREA SECTION PROPERTIES"
   Section=Deck   Material=BTCT   MatAngle=0   AreaType=Shell   Type=Shell-Thin   DrillDOF=Yes   Thickness=0.3   BendThick=0.3   Color=Green   F11Mod=1   F22Mod=1   F12Mod=1   M11Mod=1   M22Mod=1   M12Mod=1   V13Mod=1   V23Mod=1   MMod=1 _
        WMod=1   Notes="Added 24-Feb-23 16:56:47"
 
TABLE:  "AREA SECTION PROPERTY DESIGN PARAMETERS"
   Section=Deck   RebarMat=None   RebarOpt=Default
 
TABLE:  "AREA SECTION PROPERTY - TIME DEPENDENT"
   Section=Deck   TypeSize=User   AutoSFSize=1   UserValSize=0.1
 
TABLE:  "AUTO COMBINATION OPTION DATA 01 - GENERAL"
   DesignType=Concrete   AutoGen=Yes
 
TABLE:  "AUTO COMBINATION OPTION DATA 02 - USER DATA"
   DesignType=Concrete   LSType=Strength   LCName=DEAD
   DesignType=Concrete   LSType=Strength   LCName=LL
 
TABLE:  "AUTO WAVE 3 - WAVE CHARACTERISTICS - GENERAL"
   WaveChar=Default   WaveType="From Theory"   KinFactor=1   SWaterDepth=45   WaveHeight=18   WavePeriod=12   WaveTheory=Linear
 
TABLE:  "CASE - MODAL 1 - GENERAL"
   Case=MODAL   ModeType=Eigen   MaxNumModes=12   MinNumModes=1   EigenShift=0   EigenCutoff=0   EigenTol=1E-09   AutoShift=Yes
 
TABLE:  "CASE - STATIC 1 - LOAD ASSIGNMENTS"
   Case=DEAD   LoadType="Load pattern"   LoadName=DEAD   LoadSF=1
   Case=LL   LoadType="Load pattern"   LoadName=LL   LoadSF=1
 
TABLE:  "COMBINATION DEFINITIONS"
   ComboName=COMB1   ComboType="Linear Add"   AutoDesign=No   CaseName=DEAD   ScaleFactor=1   SteelDesign=None   ConcDesign=Strength   AlumDesign=None   ColdDesign=None
   ComboName=COMB2   ComboType="Linear Add"   AutoDesign=No   CaseName=DEAD   ScaleFactor=1   SteelDesign=None   ConcDesign=Strength   AlumDesign=None   ColdDesign=None
   ComboName=COMB2   CaseName=LL   ScaleFactor=1
   ComboName=BAO   ComboType=Envelope   AutoDesign=No   CaseName=COMB1   ScaleFactor=1   SteelDesign=None   ConcDesign=Strength   AlumDesign=None   ColdDesign=None
   ComboName=BAO   CaseName=COMB2   ScaleFactor=1
   ComboName=DCON1   ComboType="Linear Add"   AutoDesign=Yes   CaseName=DEAD   ScaleFactor=1.4   SteelDesign=None   ConcDesign=Strength   AlumDesign=None   ColdDesign=None   GUID=bb4fff9a-98b5-44d1-9fde-34d92700a8e9   Notes="Dead Only; Strength"
   ComboName=DCON2   ComboType="Linear Add"   AutoDesign=Yes   CaseName=DEAD   ScaleFactor=1.25   SteelDesign=None   ConcDesign=Strength   AlumDesign=None   ColdDesign=None   GUID=505bcda7-6fac-4dd0-b03e-c591d1ffc6ce   Notes="Dead + Live; Strength"
   ComboName=DCON2   CaseName=LL   ScaleFactor=1.5
 
TABLE:  "CONNECTIVITY - AREA"
   Area=217684   Joint1=636566   Joint2=636513   Joint3=636484   Joint4=636483   GUID=67820da5-ccc3-4a30-9772-fc985107bf41
   Area=217685   Joint1=636483   Joint2=636484   Joint3=636486   Joint4=636485   GUID=9a66890c-3093-4a74-92f1-4db124da8dda
   Area=217686   Joint1=636485   Joint2=636486   Joint3=636488   Joint4=636487   GUID=8451eb3d-6f49-4ec8-b298-7ee06b646351
   Area=217687   Joint1=636487   Joint2=636488   Joint3=636490   Joint4=636489   GUID=4bbbd24d-7e98-4596-a38a-b05563cb5ff5
   Area=217688   Joint1=636489   Joint2=636490   Joint3=636492   Joint4=636491   GUID=8052b388-0d7a-4fc4-bd17-47ad234d25ee
   Area=217689   Joint1=636491   Joint2=636492   Joint3=636517   Joint4=636567   GUID=452fa2bd-f01e-43e3-9810-453703ba1628
   Area=217690   Joint1=636513   Joint2=636514   Joint3=636493   Joint4=636484   GUID=c68522c2-a048-425c-9276-f48e8aea760d
   Area=217691   Joint1=636484   Joint2=636493   Joint3=636494   Joint4=636486   GUID=53f8319d-0f95-426d-a13d-0fb127725cda
   Area=217692   Joint1=636486   Joint2=636494   Joint3=636495   Joint4=636488   GUID=1a39d3c6-c2f4-455b-a14d-61c3b3ce45c1
   Area=217693   Joint1=636488   Joint2=636495   Joint3=636496   Joint4=636490   GUID=7e9f2e76-56f9-4706-9898-8c001da55658
   Area=217694   Joint1=636490   Joint2=636496   Joint3=636497   Joint4=636492   GUID=343cb37f-0514-40aa-ac11-24875c3aae4b
   Area=217695   Joint1=636492   Joint2=636497   Joint3=636518   Joint4=636517   GUID=c4935796-4c0c-4db7-b365-2b93c4a650cb
   Area=217696   Joint1=636514   Joint2=636515   Joint3=636498   Joint4=636493   GUID=74e3b87c-ae40-4a84-bd7b-d7436c5a55f2
   Area=217697   Joint1=636493   Joint2=636498   Joint3=636499   Joint4=636494   GUID=394f2851-d30d-467d-9dd0-4a1b63186883
   Area=217698   Joint1=636494   Joint2=636499   Joint3=636500   Joint4=636495   GUID=15c77cb0-4a7f-4e3b-9584-bcdfe2b3a5ed
   Area=217699   Joint1=636495   Joint2=636500   Joint3=636501   Joint4=636496   GUID=87c9f5a8-ff9f-40b1-8c1b-894c43c54f15
   Area=217700   Joint1=636496   Joint2=636501   Joint3=636502   Joint4=636497   GUID=6047a30a-4dfd-4df0-affa-35c455aec3c6
   Area=217701   Joint1=636497   Joint2=636502   Joint3=636519   Joint4=636518   GUID=0d4bbed4-59db-4d86-9dd9-58e43b485189
   Area=217702   Joint1=636515   Joint2=636516   Joint3=636503   Joint4=636498   GUID=6d90e054-8963-4adf-8bdf-75db1c340972
   Area=217703   Joint1=636498   Joint2=636503   Joint3=636504   Joint4=636499   GUID=ae393279-89d6-4f92-8e49-f5bbd116713d
   Area=217704   Joint1=636499   Joint2=636504   Joint3=636505   Joint4=636500   GUID=ea519f1f-4f43-4ae6-a70c-0bb600feb92a
   Area=217705   Joint1=636500   Joint2=636505   Joint3=636506   Joint4=636501   GUID=6e8f4528-75c5-4a13-9c0c-fcb732d55eb7
   Area=217706   Joint1=636501   Joint2=636506   Joint3=636507   Joint4=636502   GUID=371e5b4d-f9b7-43de-b410-674b3abe173c
   Area=217707   Joint1=636502   Joint2=636507   Joint3=636520   Joint4=636519   GUID=19f80120-13db-40a1-b892-dc7cef4326cb
   Area=217708   Joint1=636516   Joint2=636568   Joint3=636508   Joint4=636503   GUID=9a26fc56-439d-4e3a-9a26-78cf2b328b46
   Area=217709   Joint1=636503   Joint2=636508   Joint3=636509   Joint4=636504   GUID=4be86ae6-05fd-4cd9-a371-46ed46f21a22
   Area=217710   Joint1=636504   Joint2=636509   Joint3=636510   Joint4=636505   GUID=e7f7c00c-e583-4ca7-a86d-09000928f3e2
   Area=217711   Joint1=636505   Joint2=636510   Joint3=636511   Joint4=636506   GUID=88afbf08-4aa3-4957-a40c-f5bb691bbd40
   Area=217712   Joint1=636506   Joint2=636511   Joint3=636512   Joint4=636507   GUID=676a96fa-00a3-422d-8ceb-3596f83f7ada
   Area=217713   Joint1=636507   Joint2=636512   Joint3=636569   Joint4=636520   GUID=a2cb9c7d-9546-4230-bc9f-1b872ab03a0a
 
TABLE:  "CONNECTIVITY - FRAME"
   Frame=738034   JointI=636483   JointJ=636484   IsCurved=No   GUID=271426b4-7f98-4717-b30c-9c4cb7656289
   Frame=738035   JointI=636485   JointJ=636486   IsCurved=No   GUID=c0bb6e1c-9ee9-42d2-a714-47272758094e
   Frame=738036   JointI=636487   JointJ=636488   IsCurved=No   GUID=1465d634-d19a-4d65-a147-40c1d04110ab
   Frame=738037   JointI=636489   JointJ=636490   IsCurved=No   GUID=51bcaf0e-7adb-4a93-b3c5-13526405234c
   Frame=738038   JointI=636491   JointJ=636492   IsCurved=No   GUID=f4b13f53-7ebb-4a5e-9f9b-a8b9c0d3c114
   Frame=738039   JointI=636484   JointJ=636493   IsCurved=No   GUID=d95f2681-79e7-4aa6-8295-954cc9611f56
   Frame=738040   JointI=636486   JointJ=636494   IsCurved=No   GUID=c0711f58-2447-47d0-889d-10133927b4eb
   Frame=738041   JointI=636488   JointJ=636495   IsCurved=No   GUID=1615c7c8-7e2e-4d5f-9351-0f7632d599fa
   Frame=738042   JointI=636490   JointJ=636496   IsCurved=No   GUID=07027119-53cf-42be-933e-3c62be061c96
   Frame=738043   JointI=636492   JointJ=636497   IsCurved=No   GUID=cb4d9d94-43eb-44c4-829f-ef5fcd31c57a
   Frame=738044   JointI=636493   JointJ=636498   IsCurved=No   GUID=a75e7425-f38c-4e33-aef2-239c7a5f1661
   Frame=738045   JointI=636494   JointJ=636499   IsCurved=No   GUID=44a31d4d-4c4a-42fa-ae01-f95e03f878bc
   Frame=738046   JointI=636495   JointJ=636500   IsCurved=No   GUID=e9f7415d-b4b2-4216-8cd0-cdcf4015c36b
   Frame=738047   JointI=636496   JointJ=636501   IsCurved=No   GUID=d15fc003-589a-47c5-9679-cfd09d5884e2
   Frame=738048   JointI=636497   JointJ=636502   IsCurved=No   GUID=4c4d0079-7524-4ee1-b03a-fcc35b811ffa
   Frame=738049   JointI=636498   JointJ=636503   IsCurved=No   GUID=a9f28d30-f900-4a49-9c64-021f6663dde5
   Frame=738050   JointI=636499   JointJ=636504   IsCurved=No   GUID=cbac4e54-e758-452b-a178-a2cfda19da1b
   Frame=738051   JointI=636500   JointJ=636505   IsCurved=No   GUID=13f5a6ff-382d-48bb-8ace-80841df2d6ec
   Frame=738052   JointI=636501   JointJ=636506   IsCurved=No   GUID=e29d02d6-6deb-4b98-9d93-6737f4f69a62
   Frame=738053   JointI=636502   JointJ=636507   IsCurved=No   GUID=970cce1a-3139-4058-9a78-578e85c7850b
   Frame=738054   JointI=636503   JointJ=636508   IsCurved=No   GUID=fb654fca-626e-48e2-af97-55e21d813fd0
   Frame=738055   JointI=636504   JointJ=636509   IsCurved=No   GUID=cef3f2bf-d5f9-46cc-95c0-8b316a5de94b
   Frame=738056   JointI=636505   JointJ=636510   IsCurved=No   GUID=82c51000-1892-4a6f-b3c8-d3d5296b2996
   Frame=738057   JointI=636506   JointJ=636511   IsCurved=No   GUID=1c42d951-11bf-47ad-bc67-e7c7494985ef
   Frame=738058   JointI=636507   JointJ=636512   IsCurved=No   GUID=8081e139-205d-4bf7-bc07-c57bfbea5df4
   Frame=738059   JointI=636513   JointJ=636484   IsCurved=No   GUID=13972bce-a6d5-46f7-85d6-beb7306fb39c
   Frame=738060   JointI=636514   JointJ=636493   IsCurved=No   GUID=c827ef31-4395-4bb3-bb82-36e41bf0f2fd
   Frame=738061   JointI=636515   JointJ=636498   IsCurved=No   GUID=1799d4cd-27e4-4a77-a5a9-19516709d640
   Frame=738062   JointI=636516   JointJ=636503   IsCurved=No   GUID=bf5734b4-7fba-4447-8001-dc4498742bd1
   Frame=738063   JointI=636484   JointJ=636486   IsCurved=No   GUID=291a34a1-0c7d-44ab-8b90-f75435da8749
   Frame=738064   JointI=636493   JointJ=636494   IsCurved=No   GUID=3a14858b-6cd1-4b61-affc-dd8ef4c7c3d2
   Frame=738065   JointI=636498   JointJ=636499   IsCurved=No   GUID=78fc6594-7308-4159-8cf9-2d6612c86602
   Frame=738066   JointI=636503   JointJ=636504   IsCurved=No   GUID=a8fd26e1-d4b6-4fb7-9f79-3e7825bb6be5
   Frame=738067   JointI=636486   JointJ=636488   IsCurved=No   GUID=5de56368-af6d-42d7-a44a-767c46ca4cd4
   Frame=738068   JointI=636494   JointJ=636495   IsCurved=No   GUID=c32a8557-59f7-49d6-b84a-2a8fe572c733
   Frame=738069   JointI=636499   JointJ=636500   IsCurved=No   GUID=3a78d234-add6-4b75-aa94-8cdc14ce382c
   Frame=738070   JointI=636504   JointJ=636505   IsCurved=No   GUID=a90babde-806e-462e-9be9-69494c8870c8
   Frame=738071   JointI=636488   JointJ=636490   IsCurved=No   GUID=626d0d50-10e9-4643-91c5-ade2261e35a1
   Frame=738072   JointI=636495   JointJ=636496   IsCurved=No   GUID=a89c2a08-744c-486e-814a-fed1c91ca778
   Frame=738073   JointI=636500   JointJ=636501   IsCurved=No   GUID=f7a03564-0463-41a5-8331-b07aed3490b2
   Frame=738074   JointI=636505   JointJ=636506   IsCurved=No   GUID=03b602d1-5838-47c6-94f4-3bbc9000dfd3
   Frame=738075   JointI=636490   JointJ=636492   IsCurved=No   GUID=5e75381f-7607-4fb4-9e2b-fd90927d0658
   Frame=738076   JointI=636496   JointJ=636497   IsCurved=No   GUID=359acc67-37f2-49eb-a92b-80f9a35c65fd
   Frame=738077   JointI=636501   JointJ=636502   IsCurved=No   GUID=4abe38a7-ffd1-47b2-8b30-0a0a0c0b78c1
   Frame=738078   JointI=636506   JointJ=636507   IsCurved=No   GUID=026edd48-d42a-4a90-86ce-3241d9c36c2d
   Frame=738079   JointI=636492   JointJ=636517   IsCurved=No   GUID=38b99943-6d74-4d86-b76a-c43b942d0be3
   Frame=738080   JointI=636497   JointJ=636518   IsCurved=No   GUID=ecca3ee7-1754-4dd2-ad41-308da4b596b7
   Frame=738081   JointI=636502   JointJ=636519   IsCurved=No   GUID=aed5c8c2-f98a-43f5-92e8-559b8656922d
   Frame=738082   JointI=636507   JointJ=636520   IsCurved=No   GUID=e5a4e9ae-6c0b-4285-80b6-732801b8697f
   Frame=738083   JointI=636484   JointJ=636521   IsCurved=No   GUID=8def4082-30c2-4778-9297-cc82bf5c3945
   Frame=738084   JointI=636521   JointJ=636522   IsCurved=No   GUID=332d0d0f-531b-4013-a86b-2bf2fa9698b2
   Frame=738085   JointI=636522   JointJ=636523   IsCurved=No   GUID=3c50abef-21b1-40d5-bdcd-09a606e53cca
   Frame=738086   JointI=636486   JointJ=636524   IsCurved=No   GUID=8eabbb96-8041-4b5a-ae20-cb8eb1da8f84
   Frame=738087   JointI=636524   JointJ=636525   IsCurved=No   GUID=9dcea671-6908-4ac6-a8cb-aa378169b57f
   Frame=738088   JointI=636525   JointJ=636526   IsCurved=No   GUID=cb1be56a-68e3-4722-8ccd-bd15867eab60
   Frame=738089   JointI=636488   JointJ=636527   IsCurved=No   GUID=8ec70c06-8b67-45c8-93ac-d2e0fe617f73
   Frame=738090   JointI=636527   JointJ=636528   IsCurved=No   GUID=b1e9b3a2-524f-4492-b649-db0dd868a298
   Frame=738091   JointI=636528   JointJ=636529   IsCurved=No   GUID=c5be03a6-a172-4fdf-830a-3458e3021ff3
   Frame=738092   JointI=636490   JointJ=636530   IsCurved=No   GUID=0da15f3f-1534-4758-8713-3cc882131b0f
   Frame=738093   JointI=636530   JointJ=636531   IsCurved=No   GUID=2b649276-e275-4a84-9bdb-aabf4971cbbe
   Frame=738094   JointI=636531   JointJ=636532   IsCurved=No   GUID=9e0cf815-df3d-4c01-9304-26f10e5a2429
   Frame=738095   JointI=636492   JointJ=636533   IsCurved=No   GUID=2e214dd8-1a26-41ee-b2a8-3a4435d4aeb6
   Frame=738096   JointI=636533   JointJ=636534   IsCurved=No   GUID=19317e9a-c454-4deb-a239-6f124af0b947
   Frame=738097   JointI=636534   JointJ=636535   IsCurved=No   GUID=bb304f8b-5a3e-428c-a8bb-30908c8e50d6
   Frame=738098   JointI=636493   JointJ=636536   IsCurved=No   GUID=6c974ccd-105b-4ec1-aa9d-b5e24c9c2218
   Frame=738099   JointI=636536   JointJ=636537   IsCurved=No   GUID=d8c3e156-591a-4db9-9c13-6ef9075e3756
   Frame=738100   JointI=636494   JointJ=636538   IsCurved=No   GUID=2f0797ee-21e8-412c-a69a-5809e4cd3fa1
   Frame=738101   JointI=636538   JointJ=636539   IsCurved=No   GUID=1b4e276c-cbce-4420-a166-d30abb94228a
   Frame=738102   JointI=636495   JointJ=636540   IsCurved=No   GUID=d79ef0a1-8512-4924-990a-fd6ae3ed049e
   Frame=738103   JointI=636540   JointJ=636541   IsCurved=No   GUID=f1cbe826-b067-452b-85d2-6799ce65b4e2
   Frame=738104   JointI=636496   JointJ=636542   IsCurved=No   GUID=b4a20799-f1e1-4b06-8901-fd4a64712ab1
   Frame=738105   JointI=636542   JointJ=636543   IsCurved=No   GUID=b75d7227-93d9-4980-93ab-25e6d3e30763
   Frame=738106   JointI=636497   JointJ=636544   IsCurved=No   GUID=a7f07911-81c9-42c1-aafa-5d00d1b6a9c4
   Frame=738107   JointI=636544   JointJ=636545   IsCurved=No   GUID=1e9bed61-174b-464c-8182-2da5a7e38cbb
   Frame=738108   JointI=636498   JointJ=636546   IsCurved=No   GUID=b46e83ae-2741-475d-8594-25795ea85756
   Frame=738109   JointI=636546   JointJ=636547   IsCurved=No   GUID=14a1067f-90cd-4d83-94bb-0e34c62cfe48
   Frame=738110   JointI=636499   JointJ=636548   IsCurved=No   GUID=5ef78ce8-f665-4149-822b-367df33ccb94
   Frame=738111   JointI=636548   JointJ=636549   IsCurved=No   GUID=a6b33bcb-185e-4cc4-b771-667006c0a4fb
   Frame=738112   JointI=636500   JointJ=636550   IsCurved=No   GUID=8aa0cc13-34ed-4620-8417-df32e449f5aa
   Frame=738113   JointI=636550   JointJ=636551   IsCurved=No   GUID=7933bec6-32a9-4627-815b-ba4fb127dd54
   Frame=738114   JointI=636501   JointJ=636552   IsCurved=No   GUID=6a7bd79a-8182-4082-8d75-928167b09eba
   Frame=738115   JointI=636552   JointJ=636553   IsCurved=No   GUID=2332e4a5-2095-4bea-bfa1-777b89994a7a
   Frame=738116   JointI=636502   JointJ=636554   IsCurved=No   GUID=ce19137b-3044-46a9-97cc-792720252d5c
   Frame=738117   JointI=636554   JointJ=636555   IsCurved=No   GUID=7baffbc2-d934-4c05-809e-e492387726c9
   Frame=738118   JointI=636503   JointJ=636556   IsCurved=No   GUID=64148338-3af9-4207-9143-03c811bb29eb
   Frame=738119   JointI=636556   JointJ=636557   IsCurved=No   GUID=a511b236-1e43-4d8b-a00b-22b5b66ef657
   Frame=738120   JointI=636504   JointJ=636558   IsCurved=No   GUID=93e223ab-b54e-48d2-81e4-39df1061c108
   Frame=738121   JointI=636558   JointJ=636559   IsCurved=No   GUID=979db56d-3c29-4d1c-a815-5072fdd3da09
   Frame=738122   JointI=636505   JointJ=636560   IsCurved=No   GUID=1f2b079f-5550-486f-9f5f-72d26f2f2422
   Frame=738123   JointI=636560   JointJ=636561   IsCurved=No   GUID=715af483-0b81-455b-83fc-898dea84f9ad
   Frame=738124   JointI=636506   JointJ=636562   IsCurved=No   GUID=ba274d80-5dcc-4649-80dc-2bbc86c288f9
   Frame=738125   JointI=636562   JointJ=636563   IsCurved=No   GUID=3643b0bb-f5f3-4f85-8190-883573b373ab
   Frame=738126   JointI=636507   JointJ=636564   IsCurved=No   GUID=67264c24-6eba-48ae-8daf-314ae0c9b99f
   Frame=738127   JointI=636564   JointJ=636565   IsCurved=No   GUID=3335c777-c40f-4d4c-98f0-048bfd66d7c5
   Frame=738128   JointI=636521   JointJ=636524   IsCurved=No   GUID=b8ab8be1-f9f5-4209-9dba-9cffa8380ddf
   Frame=738129   JointI=636524   JointJ=636527   IsCurved=No   GUID=b5b5c040-d34e-4e88-b0f1-7db3e06a84f8
   Frame=738130   JointI=636527   JointJ=636530   IsCurved=No   GUID=2a5e7e21-5640-4ab6-8d74-09bb61c1aed5
   Frame=738131   JointI=636530   JointJ=636533   IsCurved=No   GUID=ec0b8708-37a8-4bba-a016-5eb1ea07d939
 
TABLE:  "COORDINATE SYSTEMS"
   Name=GLOBAL   Type=Cartesian   X=0   Y=0   Z=0   AboutZ=0   AboutY=0   AboutX=0
 
TABLE:  "DATABASE DOCUMENTATION"
 
TABLE:  "DATABASE FORMAT TYPES"
   UnitsCurr=Yes   OverrideE=No
 
TABLE:  "FRAME AUTO MESH ASSIGNMENTS"
   Frame=738034   AutoMesh=Yes   AtJoints=Yes   AtFrames=No   NumSegments=0   MaxLength=0   MaxDegrees=0
   Frame=738035   AutoMesh=Yes   AtJoints=Yes   AtFrames=No   NumSegments=0   MaxLength=0   MaxDegrees=0
   Frame=738036   AutoMesh=Yes   AtJoints=Yes   AtFrames=No   NumSegments=0   MaxLength=0   MaxDegrees=0
   Frame=738037   AutoMesh=Yes   AtJoints=Yes   AtFrames=No   NumSegments=0   MaxLength=0   MaxDegrees=0
   Frame=738038   AutoMesh=Yes   AtJoints=Yes   AtFrames=No   NumSegments=0   MaxLength=0   MaxDegrees=0
   Frame=738039   AutoMesh=Yes   AtJoints=Yes   AtFrames=No   NumSegments=0   MaxLength=0   MaxDegrees=0
   Frame=738040   AutoMesh=Yes   AtJoints=Yes   AtFrames=No   NumSegments=0   MaxLength=0   MaxDegrees=0
   Frame=738041   AutoMesh=Yes   AtJoints=Yes   AtFrames=No   NumSegments=0   MaxLength=0   MaxDegrees=0
   Frame=738042   AutoMesh=Yes   AtJoints=Yes   AtFrames=No   NumSegments=0   MaxLength=0   MaxDegrees=0
   Frame=738043   AutoMesh=Yes   AtJoints=Yes   AtFrames=No   NumSegments=0   MaxLength=0   MaxDegrees=0
   Frame=738044   AutoMesh=Yes   AtJoints=Yes   AtFrames=No   NumSegments=0   MaxLength=0   MaxDegrees=0
   Frame=738045   AutoMesh=Yes   AtJoints=Yes   AtFrames=No   NumSegments=0   MaxLength=0   MaxDegrees=0
   Frame=738046   AutoMesh=Yes   AtJoints=Yes   AtFrames=No   NumSegments=0   MaxLength=0   MaxDegrees=0
   Frame=738047   AutoMesh=Yes   AtJoints=Yes   AtFrames=No   NumSegments=0   MaxLength=0   MaxDegrees=0
   Frame=738048   AutoMesh=Yes   AtJoints=Yes   AtFrames=No   NumSegments=0   MaxLength=0   MaxDegrees=0
   Frame=738049   AutoMesh=Yes   AtJoints=Yes   AtFrames=No   NumSegments=0   MaxLength=0   MaxDegrees=0
   Frame=738050   AutoMesh=Yes   AtJoints=Yes   AtFrames=No   NumSegments=0   MaxLength=0   MaxDegrees=0
   Frame=738051   AutoMesh=Yes   AtJoints=Yes   AtFrames=No   NumSegments=0   MaxLength=0   MaxDegrees=0
   Frame=738052   AutoMesh=Yes   AtJoints=Yes   AtFrames=No   NumSegments=0   MaxLength=0   MaxDegrees=0
   Frame=738053   AutoMesh=Yes   AtJoints=Yes   AtFrames=No   NumSegments=0   MaxLength=0   MaxDegrees=0
# ... 78 like lines cut
 
TABLE:  "FRAME DESIGN PROCEDURES"
   Frame=738034   DesignProc="From Material"
   Frame=738035   DesignProc="From Material"
   Frame=738036   DesignProc="From Material"
   Frame=738037   DesignProc="From Material"
   Frame=738038   DesignProc="From Material"
   Frame=738039   DesignProc="From Material"
   Frame=738040   DesignProc="From Material"
   Frame=738041   DesignProc="From Material"
   Frame=738042   DesignProc="From Material"
   Frame=738043   DesignProc="From Material"
   Frame=738044   DesignProc="From Material"
   Frame=738045   DesignProc="From Material"
   Frame=738046   DesignProc="From Material"
   Frame=738047   DesignProc="From Material"
   Frame=738048   DesignProc="From Material"
   Frame=738049   DesignProc="From Material"
   Frame=738050   DesignProc="From Material"
   Frame=738051   DesignProc="From Material"
   Frame=738052   DesignProc="From Material"
   Frame=738053   DesignProc="From Material"
# ... 30 like lines cut
   Frame=738084   DesignProc="No Design"
   Frame=738085   DesignProc="No Design"
   Frame=738086   DesignProc="From Material"
   Frame=738087   DesignProc="No Design"
   Frame=738088   DesignProc="No Design"
   Frame=738089   DesignProc="From Material"
   Frame=738090   DesignProc="No Design"
   Frame=738091   DesignProc="No Design"
   Frame=738092   DesignProc="From Material"
   Frame=738093   DesignProc="No Design"
   Frame=738094   DesignProc="No Design"
   Frame=738095   DesignProc="From Material"
   Frame=738096   DesignProc="No Design"
   Frame=738097   DesignProc="No Design"
   Frame=738098   DesignProc="No Design"
   Frame=738099   DesignProc="No Design"
   Frame=738100   DesignProc="No Design"
   Frame=738101   DesignProc="No Design"
   Frame=738102   DesignProc="No Design"
   Frame=738103   DesignProc="No Design"
   Frame=738104   DesignProc="No Design"
   Frame=738105   DesignProc="No Design"
   Frame=738106   DesignProc="No Design"
   Frame=738107   DesignProc="No Design"
   Frame=738108   DesignProc="No Design"
   Frame=738109   DesignProc="No Design"
   Frame=738110   DesignProc="No Design"
   Frame=738111   DesignProc="No Design"
   Frame=738112   DesignProc="No Design"
   Frame=738113   DesignProc="No Design"
   Frame=738114   DesignProc="No Design"
   Frame=738115   DesignProc="No Design"
# ... 12 like lines cut
   Frame=738128   DesignProc="From Material"
   Frame=738129   DesignProc="From Material"
   Frame=738130   DesignProc="From Material"
   Frame=738131   DesignProc="From Material"
 
TABLE:  "FRAME LOAD TRANSFER OPTIONS"
   Frame=738034   Transfer=Yes
   Frame=738035   Transfer=Yes
   Frame=738036   Transfer=Yes
   Frame=738037   Transfer=Yes
   Frame=738038   Transfer=Yes
   Frame=738039   Transfer=Yes
   Frame=738040   Transfer=Yes
   Frame=738041   Transfer=Yes
   Frame=738042   Transfer=Yes
   Frame=738043   Transfer=Yes
   Frame=738044   Transfer=Yes
   Frame=738045   Transfer=Yes
   Frame=738046   Transfer=Yes
   Frame=738047   Transfer=Yes
   Frame=738048   Transfer=Yes
   Frame=738049   Transfer=Yes
   Frame=738050   Transfer=Yes
   Frame=738051   Transfer=Yes
   Frame=738052   Transfer=Yes
   Frame=738053   Transfer=Yes
# ... 78 like lines cut
 
TABLE:  "FRAME LOCAL AXES ASSIGNMENTS 1 - TYPICAL"
   Frame=738083   Angle=90
   Frame=738086   Angle=90
   Frame=738089   Angle=90
   Frame=738092   Angle=90
   Frame=738095   Angle=90
 
TABLE:  "FRAME OUTPUT STATION ASSIGNMENTS"
   Frame=738034   StationType=MaxStaSpcg   MaxStaSpcg=0.5   AddAtElmInt=Yes   AddAtPtLoad=Yes
   Frame=738035   StationType=MaxStaSpcg   MaxStaSpcg=0.5   AddAtElmInt=Yes   AddAtPtLoad=Yes
   Frame=738036   StationType=MaxStaSpcg   MaxStaSpcg=0.5   AddAtElmInt=Yes   AddAtPtLoad=Yes
   Frame=738037   StationType=MaxStaSpcg   MaxStaSpcg=0.5   AddAtElmInt=Yes   AddAtPtLoad=Yes
   Frame=738038   StationType=MaxStaSpcg   MaxStaSpcg=0.5   AddAtElmInt=Yes   AddAtPtLoad=Yes
   Frame=738039   StationType=MaxStaSpcg   MaxStaSpcg=0.5   AddAtElmInt=Yes   AddAtPtLoad=Yes
   Frame=738040   StationType=MaxStaSpcg   MaxStaSpcg=0.5   AddAtElmInt=Yes   AddAtPtLoad=Yes
   Frame=738041   StationType=MaxStaSpcg   MaxStaSpcg=0.5   AddAtElmInt=Yes   AddAtPtLoad=Yes
   Frame=738042   StationType=MaxStaSpcg   MaxStaSpcg=0.5   AddAtElmInt=Yes   AddAtPtLoad=Yes
   Frame=738043   StationType=MaxStaSpcg   MaxStaSpcg=0.5   AddAtElmInt=Yes   AddAtPtLoad=Yes
   Frame=738044   StationType=MaxStaSpcg   MaxStaSpcg=0.5   AddAtElmInt=Yes   AddAtPtLoad=Yes
   Frame=738045   StationType=MaxStaSpcg   MaxStaSpcg=0.5   AddAtElmInt=Yes   AddAtPtLoad=Yes
   Frame=738046   StationType=MaxStaSpcg   MaxStaSpcg=0.5   AddAtElmInt=Yes   AddAtPtLoad=Yes
   Frame=738047   StationType=MaxStaSpcg   MaxStaSpcg=0.5   AddAtElmInt=Yes   AddAtPtLoad=Yes
   Frame=738048   StationType=MaxStaSpcg   MaxStaSpcg=0.5   AddAtElmInt=Yes   AddAtPtLoad=Yes
   Frame=738049   StationType=MaxStaSpcg   MaxStaSpcg=0.5   AddAtElmInt=Yes   AddAtPtLoad=Yes
   Frame=738050   StationType=MaxStaSpcg   MaxStaSpcg=0.5   AddAtElmInt=Yes   AddAtPtLoad=Yes
   Frame=738051   StationType=MaxStaSpcg   MaxStaSpcg=0.5   AddAtElmInt=Yes   AddAtPtLoad=Yes
   Frame=738052   StationType=MaxStaSpcg   MaxStaSpcg=0.5   AddAtElmInt=Yes   AddAtPtLoad=Yes
   Frame=738053   StationType=MaxStaSpcg   MaxStaSpcg=0.5   AddAtElmInt=Yes   AddAtPtLoad=Yes
# ... 29 like lines cut
   Frame=738083   StationType=MinNumSta   MinNumSta=3   AddAtElmInt=Yes   AddAtPtLoad=Yes
   Frame=738084   StationType=MinNumSta   MinNumSta=3   AddAtElmInt=Yes   AddAtPtLoad=Yes
   Frame=738085   StationType=MinNumSta   MinNumSta=3   AddAtElmInt=Yes   AddAtPtLoad=Yes
   Frame=738086   StationType=MinNumSta   MinNumSta=3   AddAtElmInt=Yes   AddAtPtLoad=Yes
   Frame=738087   StationType=MinNumSta   MinNumSta=3   AddAtElmInt=Yes   AddAtPtLoad=Yes
   Frame=738088   StationType=MinNumSta   MinNumSta=3   AddAtElmInt=Yes   AddAtPtLoad=Yes
   Frame=738089   StationType=MinNumSta   MinNumSta=3   AddAtElmInt=Yes   AddAtPtLoad=Yes
   Frame=738090   StationType=MinNumSta   MinNumSta=3   AddAtElmInt=Yes   AddAtPtLoad=Yes
   Frame=738091   StationType=MinNumSta   MinNumSta=3   AddAtElmInt=Yes   AddAtPtLoad=Yes
   Frame=738092   StationType=MinNumSta   MinNumSta=3   AddAtElmInt=Yes   AddAtPtLoad=Yes
   Frame=738093   StationType=MinNumSta   MinNumSta=3   AddAtElmInt=Yes   AddAtPtLoad=Yes
   Frame=738094   StationType=MinNumSta   MinNumSta=3   AddAtElmInt=Yes   AddAtPtLoad=Yes
   Frame=738095   StationType=MinNumSta   MinNumSta=3   AddAtElmInt=Yes   AddAtPtLoad=Yes
   Frame=738096   StationType=MinNumSta   MinNumSta=3   AddAtElmInt=Yes   AddAtPtLoad=Yes
   Frame=738097   StationType=MinNumSta   MinNumSta=3   AddAtElmInt=Yes   AddAtPtLoad=Yes
   Frame=738098   StationType=MinNumSta   MinNumSta=3   AddAtElmInt=Yes   AddAtPtLoad=Yes
   Frame=738099   StationType=MinNumSta   MinNumSta=3   AddAtElmInt=Yes   AddAtPtLoad=Yes
   Frame=738100   StationType=MinNumSta   MinNumSta=3   AddAtElmInt=Yes   AddAtPtLoad=Yes
   Frame=738101   StationType=MinNumSta   MinNumSta=3   AddAtElmInt=Yes   AddAtPtLoad=Yes
   Frame=738102   StationType=MinNumSta   MinNumSta=3   AddAtElmInt=Yes   AddAtPtLoad=Yes
# ... 25 like lines cut
   Frame=738128   StationType=MaxStaSpcg   MaxStaSpcg=0.5   AddAtElmInt=Yes   AddAtPtLoad=Yes
   Frame=738129   StationType=MaxStaSpcg   MaxStaSpcg=0.5   AddAtElmInt=Yes   AddAtPtLoad=Yes
   Frame=738130   StationType=MaxStaSpcg   MaxStaSpcg=0.5   AddAtElmInt=Yes   AddAtPtLoad=Yes
   Frame=738131   StationType=MaxStaSpcg   MaxStaSpcg=0.5   AddAtElmInt=Yes   AddAtPtLoad=Yes
 
TABLE:  "FRAME SECTION ASSIGNMENTS"
   Frame=738034   AutoSelect=N.A.   AnalSect=TB   MatProp=Default
   Frame=738035   AutoSelect=N.A.   AnalSect=TB   MatProp=Default
   Frame=738036   AutoSelect=N.A.   AnalSect=TB   MatProp=Default
   Frame=738037   AutoSelect=N.A.   AnalSect=TB   MatProp=Default
   Frame=738038   AutoSelect=N.A.   AnalSect=TB   MatProp=Default
   Frame=738039   AutoSelect=N.A.   AnalSect=TB   MatProp=Default
   Frame=738040   AutoSelect=N.A.   AnalSect=TB   MatProp=Default
   Frame=738041   AutoSelect=N.A.   AnalSect=TB   MatProp=Default
   Frame=738042   AutoSelect=N.A.   AnalSect=TB   MatProp=Default
   Frame=738043   AutoSelect=N.A.   AnalSect=TB   MatProp=Default
   Frame=738044   AutoSelect=N.A.   AnalSect=TB   MatProp=Default
   Frame=738045   AutoSelect=N.A.   AnalSect=TB   MatProp=Default
   Frame=738046   AutoSelect=N.A.   AnalSect=TB   MatProp=Default
   Frame=738047   AutoSelect=N.A.   AnalSect=TB   MatProp=Default
   Frame=738048   AutoSelect=N.A.   AnalSect=TB   MatProp=Default
   Frame=738049   AutoSelect=N.A.   AnalSect=TB   MatProp=Default
   Frame=738050   AutoSelect=N.A.   AnalSect=TB   MatProp=Default
   Frame=738051   AutoSelect=N.A.   AnalSect=TB   MatProp=Default
   Frame=738052   AutoSelect=N.A.   AnalSect=TB   MatProp=Default
   Frame=738053   AutoSelect=N.A.   AnalSect=TB   MatProp=Default
# ... 5 like lines cut
   Frame=738059   AutoSelect=N.A.   AnalSect=LB   MatProp=Default
   Frame=738060   AutoSelect=N.A.   AnalSect=LB   MatProp=Default
   Frame=738061   AutoSelect=N.A.   AnalSect=LB   MatProp=Default
   Frame=738062   AutoSelect=N.A.   AnalSect=LB   MatProp=Default
   Frame=738063   AutoSelect=N.A.   AnalSect=LB   MatProp=Default
   Frame=738064   AutoSelect=N.A.   AnalSect=LB   MatProp=Default
   Frame=738065   AutoSelect=N.A.   AnalSect=LB   MatProp=Default
   Frame=738066   AutoSelect=N.A.   AnalSect=LB   MatProp=Default
   Frame=738067   AutoSelect=N.A.   AnalSect=LB   MatProp=Default
   Frame=738068   AutoSelect=N.A.   AnalSect=LB   MatProp=Default
   Frame=738069   AutoSelect=N.A.   AnalSect=LB   MatProp=Default
   Frame=738070   AutoSelect=N.A.   AnalSect=LB   MatProp=Default
   Frame=738071   AutoSelect=N.A.   AnalSect=LB   MatProp=Default
   Frame=738072   AutoSelect=N.A.   AnalSect=LB   MatProp=Default
   Frame=738073   AutoSelect=N.A.   AnalSect=LB   MatProp=Default
   Frame=738074   AutoSelect=N.A.   AnalSect=LB   MatProp=Default
   Frame=738075   AutoSelect=N.A.   AnalSect=LB   MatProp=Default
   Frame=738076   AutoSelect=N.A.   AnalSect=LB   MatProp=Default
   Frame=738077   AutoSelect=N.A.   AnalSect=LB   MatProp=Default
   Frame=738078   AutoSelect=N.A.   AnalSect=LB   MatProp=Default
# ... 4 like lines cut
   Frame=738083   AutoSelect=N.A.   AnalSect=EB   MatProp=Default
   Frame=738084   AutoSelect=N.A.   AnalSect=Piles   MatProp=Default
   Frame=738085   AutoSelect=N.A.   AnalSect=Piles   MatProp=Default
   Frame=738086   AutoSelect=N.A.   AnalSect=EB   MatProp=Default
   Frame=738087   AutoSelect=N.A.   AnalSect=Piles   MatProp=Default
   Frame=738088   AutoSelect=N.A.   AnalSect=Piles   MatProp=Default
   Frame=738089   AutoSelect=N.A.   AnalSect=EB   MatProp=Default
   Frame=738090   AutoSelect=N.A.   AnalSect=Piles   MatProp=Default
   Frame=738091   AutoSelect=N.A.   AnalSect=Piles   MatProp=Default
   Frame=738092   AutoSelect=N.A.   AnalSect=EB   MatProp=Default
   Frame=738093   AutoSelect=N.A.   AnalSect=Piles   MatProp=Default
   Frame=738094   AutoSelect=N.A.   AnalSect=Piles   MatProp=Default
   Frame=738095   AutoSelect=N.A.   AnalSect=EB   MatProp=Default
   Frame=738096   AutoSelect=N.A.   AnalSect=Piles   MatProp=Default
   Frame=738097   AutoSelect=N.A.   AnalSect=Piles   MatProp=Default
   Frame=738098   AutoSelect=N.A.   AnalSect=Piles   MatProp=Default
   Frame=738099   AutoSelect=N.A.   AnalSect=Piles   MatProp=Default
   Frame=738100   AutoSelect=N.A.   AnalSect=Piles   MatProp=Default
   Frame=738101   AutoSelect=N.A.   AnalSect=Piles   MatProp=Default
   Frame=738102   AutoSelect=N.A.   AnalSect=Piles   MatProp=Default
   Frame=738103   AutoSelect=N.A.   AnalSect=Piles   MatProp=Default
   Frame=738104   AutoSelect=N.A.   AnalSect=Piles   MatProp=Default
   Frame=738105   AutoSelect=N.A.   AnalSect=Piles   MatProp=Default
   Frame=738106   AutoSelect=N.A.   AnalSect=Piles   MatProp=Default
   Frame=738107   AutoSelect=N.A.   AnalSect=Piles   MatProp=Default
   Frame=738108   AutoSelect=N.A.   AnalSect=Piles   MatProp=Default
   Frame=738109   AutoSelect=N.A.   AnalSect=Piles   MatProp=Default
   Frame=738110   AutoSelect=N.A.   AnalSect=Piles   MatProp=Default
   Frame=738111   AutoSelect=N.A.   AnalSect=Piles   MatProp=Default
   Frame=738112   AutoSelect=N.A.   AnalSect=Piles   MatProp=Default
   Frame=738113   AutoSelect=N.A.   AnalSect=Piles   MatProp=Default
   Frame=738114   AutoSelect=N.A.   AnalSect=Piles   MatProp=Default
   Frame=738115   AutoSelect=N.A.   AnalSect=Piles   MatProp=Default
# ... 12 like lines cut
   Frame=738128   AutoSelect=N.A.   AnalSect=EB-1   MatProp=Default
   Frame=738129   AutoSelect=N.A.   AnalSect=EB-1   MatProp=Default
   Frame=738130   AutoSelect=N.A.   AnalSect=EB-1   MatProp=Default
   Frame=738131   AutoSelect=N.A.   AnalSect=EB-1   MatProp=Default
 
TABLE:  "FRAME SECTION PROPERTIES 01 - GENERAL"
   SectionName=EB   Material=BTCT   Shape=Rectangular   t3=1.4   t2=2   Area=2.8   TorsConst=1.03873877613333   I33=0.457333333333333   I22=0.933333333333333   I23=0   AS2=2.33333333333333   AS3=2.33333333333333   S33Top=0.653333333333333 _
        S33Bot=0.653333333333333   S22Left=0.933333333333333   S22Right=0.933333333333333   Z33=0.98   Z22=1.4   R33=0.404145188432738   R22=0.577350269189626   CGOffset3=0   CGOffset2=0   EccV2=0   EccV3=0   Cw=0   Color=Blue   FromFile=No _
        AMod=1   A2Mod=1   A3Mod=1   JMod=1   I2Mod=1   I3Mod=1   MMod=1   WMod=1
   SectionName=EB-1   Material=BTCT   Shape=Rectangular   t3=2   t2=2   Area=4   TorsConst=2.25333333333333   I33=1.33333333333333   I22=1.33333333333333   I23=0   AS2=3.33333333333333   AS3=3.33333333333333   S33Top=1.33333333333333 _
        S33Bot=1.33333333333333   S22Left=1.33333333333333   S22Right=1.33333333333333   Z33=2   Z22=2   R33=0.577350269189626   R22=0.577350269189626   CGOffset3=0   CGOffset2=0   EccV2=0   EccV3=0   Cw=0   Color=Green   FromFile=No _
        AMod=1   A2Mod=1   A3Mod=1   JMod=1   I2Mod=1   I3Mod=1   MMod=1   WMod=1
   SectionName=LB   Material=BTCT   Shape=Rectangular   t3=1.8   t2=2   Area=3.6   TorsConst=1.8040348188   I33=0.972   I22=1.2   I23=0   AS2=3   AS3=3   S33Top=1.08   S33Bot=1.08   S22Left=1.2   S22Right=1.2   Z33=1.62   Z22=1.8 _
        R33=0.519615242270663   R22=0.577350269189626   CGOffset3=0   CGOffset2=0   EccV2=0   EccV3=0   Cw=0   Color=Gray8Dark   FromFile=No   AMod=1   A2Mod=1   A3Mod=1   JMod=1   I2Mod=1   I3Mod=1   MMod=1   WMod=1
   SectionName=Piles   Material=BTCTCOC   Shape=Pipe   t3=1.2   tw=0.15   Area=0.494800842940393   TorsConst=0.139162737076985   I33=0.0695813685384927   I22=0.0695813685384927   I23=0   AS2=0.250743670408983   AS3=0.250743670408983 _
        S33Top=0.115968947564155   S33Bot=0.115968947564155   S22Left=0.115968947564155   S22Right=0.115968947564155   Z33=0.1665   Z22=0.1665   R33=0.375   R22=0.375   CGOffset3=0   CGOffset2=0   EccV2=0   EccV3=0   Cw=0   Color=Cyan _
        FromFile=No   AMod=1   A2Mod=1   A3Mod=1   JMod=1   I2Mod=1   I3Mod=1   MMod=1   WMod=1
   SectionName=TB   Material=BTCT   Shape=Rectangular   t3=1.8   t2=2   Area=3.6   TorsConst=1.8040348188   I33=0.972   I22=1.2   I23=0   AS2=3   AS3=3   S33Top=1.08   S33Bot=1.08   S22Left=1.2   S22Right=1.2   Z33=1.62   Z22=1.8 _
        R33=0.519615242270663   R22=0.577350269189626   CGOffset3=0   CGOffset2=0   EccV2=0   EccV3=0   Cw=0   Color=Yellow   FromFile=No   AMod=1   A2Mod=1   A3Mod=1   JMod=1   I2Mod=1   I3Mod=1   MMod=1   WMod=1
 
TABLE:  "FRAME SECTION PROPERTIES 02 - CONCRETE COLUMN"
   SectionName=EB   RebarMatL=A706   RebarMatC=A706   ReinfConfig=Rectangular   LatReinf=Ties   Cover=0.05   NumBars3Dir=2   NumBars2Dir=2   BarSizeL=12d   BarSizeC=10d   SpacingC=0.1   NumCBars2=2   NumCBars3=2   ReinfType=Design
   SectionName=EB-1   RebarMatL=A706   RebarMatC=A706   ReinfConfig=Rectangular   LatReinf=Ties   Cover=0.05   NumBars3Dir=2   NumBars2Dir=2   BarSizeL=12d   BarSizeC=10d   SpacingC=0.1   NumCBars2=2   NumCBars3=2   ReinfType=Design
   SectionName=LB   RebarMatL=A706   RebarMatC=A706   ReinfConfig=Rectangular   LatReinf=Ties   Cover=0.05   NumBars3Dir=2   NumBars2Dir=2   BarSizeL=12d   BarSizeC=10d   SpacingC=0.1   NumCBars2=2   NumCBars3=2   ReinfType=Design
   SectionName=TB   RebarMatL=A706   RebarMatC=A706   ReinfConfig=Rectangular   LatReinf=Ties   Cover=0.05   NumBars3Dir=2   NumBars2Dir=2   BarSizeL=12d   BarSizeC=10d   SpacingC=0.1   NumCBars2=2   NumCBars3=2   ReinfType=Design
 
TABLE:  "FRAME SECTION PROPERTIES 13 - TIME DEPENDENT"
   SectionName=EB   TypeSize=Auto   AutoSFSize=1
   SectionName=EB-1   TypeSize=Auto   AutoSFSize=1
   SectionName=LB   TypeSize=Auto   AutoSFSize=1
   SectionName=Piles   TypeSize=Auto   AutoSFSize=1
   SectionName=TB   TypeSize=Auto   AutoSFSize=1
 
TABLE:  "FUNCTION - PLOT FUNCTIONS"
   PlotFunc="Input Energy"   Type=Energy   Component=Input   Mode=All
 
TABLE:  "FUNCTION - POWER SPECTRAL DENSITY - USER"
   Name=UNIFPSD   Frequency=0   Value=1
   Name=UNIFPSD   Frequency=1   Value=1
 
TABLE:  "FUNCTION - RESPONSE SPECTRUM - USER"
   Name=UNIFRS   Period=0   Accel=1   FuncDamp=0.05
   Name=UNIFRS   Period=1   Accel=1
 
TABLE:  "FUNCTION - STEADY STATE - USER"
   Name=UNIFSS   Frequency=0   Value=1
   Name=UNIFSS   Frequency=1   Value=1
 
TABLE:  "FUNCTION - TIME HISTORY - USER"
   Name=RAMPTH   Time=0   Value=0
   Name=RAMPTH   Time=1   Value=1
   Name=RAMPTH   Time=4   Value=1
   Name=UNIFTH   Time=0   Value=1
   Name=UNIFTH   Time=1   Value=1
 
TABLE:  "GRID LINES"
   CoordSys=GLOBAL   AxisDir=X   GridID=A   XRYZCoord=-10   LineType=Primary   LineColor=Gray8Dark   Visible=Yes   BubbleLoc=End   AllVisible=Yes   BubbleSize=0.9375
   CoordSys=GLOBAL   AxisDir=X   GridID=B   XRYZCoord=-9   LineType=Primary   LineColor=Gray8Dark   Visible=Yes   BubbleLoc=End
   CoordSys=GLOBAL   AxisDir=X   GridID=C   XRYZCoord=-4.5   LineType=Primary   LineColor=Gray8Dark   Visible=Yes   BubbleLoc=End
   CoordSys=GLOBAL   AxisDir=X   GridID=D   XRYZCoord=0   LineType=Primary   LineColor=Gray8Dark   Visible=Yes   BubbleLoc=End
   CoordSys=GLOBAL   AxisDir=X   GridID=E   XRYZCoord=4.5   LineType=Primary   LineColor=Gray8Dark   Visible=Yes   BubbleLoc=End
   CoordSys=GLOBAL   AxisDir=X   GridID=F   XRYZCoord=9   LineType=Primary   LineColor=Gray8Dark   Visible=Yes   BubbleLoc=End
   CoordSys=GLOBAL   AxisDir=X   GridID=G   XRYZCoord=10   LineType=Primary   LineColor=Gray8Dark   Visible=Yes   BubbleLoc=End
   CoordSys=GLOBAL   AxisDir=Y   GridID=1   XRYZCoord=-5.2   LineType=Primary   LineColor=Gray8Dark   Visible=Yes   BubbleLoc=Start
   CoordSys=GLOBAL   AxisDir=Y   GridID=2   XRYZCoord=-4.2   LineType=Primary   LineColor=Gray8Dark   Visible=Yes   BubbleLoc=Start
   CoordSys=GLOBAL   AxisDir=Y   GridID=3   XRYZCoord=0   LineType=Primary   LineColor=Gray8Dark   Visible=Yes   BubbleLoc=Start
   CoordSys=GLOBAL   AxisDir=Y   GridID=4   XRYZCoord=4.2   LineType=Primary   LineColor=Gray8Dark   Visible=Yes   BubbleLoc=Start
   CoordSys=GLOBAL   AxisDir=Y   GridID=5   XRYZCoord=4.8   LineType=Primary   LineColor=Gray8Dark   Visible=Yes   BubbleLoc=Start
   CoordSys=GLOBAL   AxisDir=Z   GridID=Z1   XRYZCoord=0   LineType=Primary   LineColor=Gray8Dark   Visible=Yes   BubbleLoc=End
   CoordSys=GLOBAL   AxisDir=Z   GridID=Z2   XRYZCoord=13   LineType=Primary   LineColor=Gray8Dark   Visible=Yes   BubbleLoc=End
 
TABLE:  "GROUPS 1 - DEFINITIONS"
   GroupName=ALL   Selection=Yes   SectionCut=Yes   Steel=Yes   Concrete=Yes   Aluminum=Yes   ColdFormed=Yes   Stage=Yes   Bridge=Yes   AutoSeismic=No   AutoWind=No   SelDesSteel=No   SelDesAlum=No   SelDesCold=No   MassWeight=Yes   Color=Red
   GroupName=Pile   Selection=Yes   SectionCut=Yes   Steel=Yes   Concrete=Yes   Aluminum=Yes   ColdFormed=Yes   Stage=Yes   Bridge=Yes   AutoSeismic=No   AutoWind=No   SelDesSteel=No   SelDesAlum=No   SelDesCold=No   MassWeight=Yes   Color=Gray8Dark
   GroupName=DN   Selection=Yes   SectionCut=Yes   Steel=Yes   Concrete=Yes   Aluminum=Yes   ColdFormed=Yes   Stage=Yes   Bridge=Yes   AutoSeismic=No   AutoWind=No   SelDesSteel=No   SelDesAlum=No   SelDesCold=No   MassWeight=Yes   Color=Yellow
   GroupName=Pile_Toe   Selection=Yes   SectionCut=Yes   Steel=Yes   Concrete=Yes   Aluminum=Yes   ColdFormed=Yes   Stage=Yes   Bridge=Yes   AutoSeismic=No   AutoWind=No   SelDesSteel=No   SelDesAlum=No   SelDesCold=No   MassWeight=Yes   Color=Green
   GroupName=Pile_Bend   Selection=Yes   SectionCut=Yes   Steel=Yes   Concrete=Yes   Aluminum=Yes   ColdFormed=Yes   Stage=Yes   Bridge=Yes   AutoSeismic=No   AutoWind=No   SelDesSteel=No   SelDesAlum=No   SelDesCold=No   MassWeight=Yes   Color=Cyan
   GroupName=Beam   Selection=Yes   SectionCut=Yes   Steel=Yes   Concrete=Yes   Aluminum=Yes   ColdFormed=Yes   Stage=Yes   Bridge=Yes   AutoSeismic=No   AutoWind=No   SelDesSteel=No   SelDesAlum=No   SelDesCold=No   MassWeight=Yes   Color=Blue
   GroupName=Piles   Selection=Yes   SectionCut=Yes   Steel=Yes   Concrete=Yes   Aluminum=Yes   ColdFormed=Yes   Stage=Yes   Bridge=Yes   AutoSeismic=No   AutoWind=No   SelDesSteel=No   SelDesAlum=No   SelDesCold=No   MassWeight=Yes   Color=Yellow
   GroupName=Beams   Selection=Yes   SectionCut=Yes   Steel=Yes   Concrete=Yes   Aluminum=Yes   ColdFormed=Yes   Stage=Yes   Bridge=Yes   AutoSeismic=No   AutoWind=No   SelDesSteel=No   SelDesAlum=No   SelDesCold=No   MassWeight=Yes   Color=Gray8Dark
 
TABLE:  "GROUPS 2 - ASSIGNMENTS"
 
TABLE:  "JOINT COORDINATES"
   Joint=636483   CoordSys=GLOBAL   CoordType=Cartesian   XorR=-8.6   Y=-5   Z=0   SpecialJt=No   GUID=731648c6-2e72-4043-a8d0-821653a427ee
   Joint=636484   CoordSys=GLOBAL   CoordType=Cartesian   XorR=-8.6   Y=-4.5   Z=0   SpecialJt=No   GUID=fcf6ee9d-0aa1-4b98-a11d-e98538c82e3e
   Joint=636485   CoordSys=GLOBAL   CoordType=Cartesian   XorR=-4.3   Y=-5   Z=0   SpecialJt=No   GUID=a18b1935-c0f9-46de-837e-e68e8c5888c8
   Joint=636486   CoordSys=GLOBAL   CoordType=Cartesian   XorR=-4.3   Y=-4.5   Z=0   SpecialJt=No   GUID=21db2fb6-ed2d-4e75-ad80-940282890e9f
   Joint=636487   CoordSys=GLOBAL   CoordType=Cartesian   XorR=0   Y=-5   Z=0   SpecialJt=No   GUID=18b82f4c-f12a-4981-a86f-45283065db10
   Joint=636488   CoordSys=GLOBAL   CoordType=Cartesian   XorR=0   Y=-4.5   Z=0   SpecialJt=No   GUID=c328c748-991f-409e-9b39-dc14a7309773
   Joint=636489   CoordSys=GLOBAL   CoordType=Cartesian   XorR=4.3   Y=-5   Z=0   SpecialJt=No   GUID=a2a20b73-2d8e-4fac-88d0-686ecdacf2a3
   Joint=636490   CoordSys=GLOBAL   CoordType=Cartesian   XorR=4.3   Y=-4.5   Z=0   SpecialJt=No   GUID=293ee117-8910-41cd-bf62-5a6ce3428f13
   Joint=636491   CoordSys=GLOBAL   CoordType=Cartesian   XorR=8.6   Y=-5   Z=0   SpecialJt=No   GUID=48e9cdae-08fa-48c4-9cb8-4c344c388dc5
   Joint=636492   CoordSys=GLOBAL   CoordType=Cartesian   XorR=8.6   Y=-4.5   Z=0   SpecialJt=No   GUID=410126e0-9a9f-4993-9a9f-f3af0b2b98f2
   Joint=636493   CoordSys=GLOBAL   CoordType=Cartesian   XorR=-8.6   Y=-1.5   Z=0   SpecialJt=No   GUID=d05eb963-82b0-4188-8e91-247f0a01f883
   Joint=636494   CoordSys=GLOBAL   CoordType=Cartesian   XorR=-4.3   Y=-1.5   Z=0   SpecialJt=No   GUID=dfb8af0a-335f-4bcb-94ba-b395e4a5f340
   Joint=636495   CoordSys=GLOBAL   CoordType=Cartesian   XorR=0   Y=-1.5   Z=0   SpecialJt=No   GUID=cf1046a3-7181-4d87-83b0-9fb4f1f072a3
   Joint=636496   CoordSys=GLOBAL   CoordType=Cartesian   XorR=4.3   Y=-1.5   Z=0   SpecialJt=No   GUID=cae4f23e-5b91-45f0-880e-b28f0c101e33
   Joint=636497   CoordSys=GLOBAL   CoordType=Cartesian   XorR=8.6   Y=-1.5   Z=0   SpecialJt=No   GUID=14bc7531-62f4-4f4e-83ca-b7cac666da11
   Joint=636498   CoordSys=GLOBAL   CoordType=Cartesian   XorR=-8.6   Y=1.5   Z=0   SpecialJt=No   GUID=a7a369d3-8550-4255-b0f6-24412e4bbadb
   Joint=636499   CoordSys=GLOBAL   CoordType=Cartesian   XorR=-4.3   Y=1.5   Z=0   SpecialJt=No   GUID=0871099f-c9db-46fe-93b9-c695aeb35297
   Joint=636500   CoordSys=GLOBAL   CoordType=Cartesian   XorR=0   Y=1.5   Z=0   SpecialJt=No   GUID=d9f91399-d503-402e-8116-3d7e3f341dce
   Joint=636501   CoordSys=GLOBAL   CoordType=Cartesian   XorR=4.3   Y=1.5   Z=0   SpecialJt=No   GUID=cdc0270a-a5c9-44fc-806e-69cb2d4891ae
   Joint=636502   CoordSys=GLOBAL   CoordType=Cartesian   XorR=8.6   Y=1.5   Z=0   SpecialJt=No   GUID=11fadec3-d504-40f9-a622-9897894d959f
   Joint=636503   CoordSys=GLOBAL   CoordType=Cartesian   XorR=-8.6   Y=4.5   Z=0   SpecialJt=No   GUID=3d31f1d0-a658-40fa-97f6-461a344cffc3
   Joint=636504   CoordSys=GLOBAL   CoordType=Cartesian   XorR=-4.3   Y=4.5   Z=0   SpecialJt=No   GUID=9f5475f4-b70d-49f5-a4d6-dd467c32fcc5
   Joint=636505   CoordSys=GLOBAL   CoordType=Cartesian   XorR=0   Y=4.5   Z=0   SpecialJt=No   GUID=1fefdaa6-3628-4736-b476-360538d77aa8
   Joint=636506   CoordSys=GLOBAL   CoordType=Cartesian   XorR=4.3   Y=4.5   Z=0   SpecialJt=No   GUID=66290205-34e2-4aeb-9c65-847d21f13ce7
   Joint=636507   CoordSys=GLOBAL   CoordType=Cartesian   XorR=8.6   Y=4.5   Z=0   SpecialJt=No   GUID=54afc7be-c972-479e-95b1-d2adb34c6493
   Joint=636508   CoordSys=GLOBAL   CoordType=Cartesian   XorR=-8.6   Y=5   Z=0   SpecialJt=No   GUID=a379c52e-08d7-41bb-a183-32a0dfa567cc
   Joint=636509   CoordSys=GLOBAL   CoordType=Cartesian   XorR=-4.3   Y=5   Z=0   SpecialJt=No   GUID=30927fed-5450-476f-b98b-aae2bb78edf0
   Joint=636510   CoordSys=GLOBAL   CoordType=Cartesian   XorR=0   Y=5   Z=0   SpecialJt=No   GUID=7351a531-92e2-4f4a-9802-4d45fccdc2cc
   Joint=636511   CoordSys=GLOBAL   CoordType=Cartesian   XorR=4.3   Y=5   Z=0   SpecialJt=No   GUID=66deb2f9-d8b4-4a5b-b517-060daea8d11b
   Joint=636512   CoordSys=GLOBAL   CoordType=Cartesian   XorR=8.6   Y=5   Z=0   SpecialJt=No   GUID=bce400a5-09e6-4efc-84d9-8fd0f090cdba
   Joint=636513   CoordSys=GLOBAL   CoordType=Cartesian   XorR=-10   Y=-4.5   Z=0   SpecialJt=No   GUID=e4ae3310-b3cc-4beb-8874-bf68efa2f395
   Joint=636514   CoordSys=GLOBAL   CoordType=Cartesian   XorR=-10   Y=-1.5   Z=0   SpecialJt=No   GUID=d843f9e4-a7fd-41d2-9d90-f47844c65934
   Joint=636515   CoordSys=GLOBAL   CoordType=Cartesian   XorR=-10   Y=1.5   Z=0   SpecialJt=No   GUID=4e25dd6d-82b1-40e9-8f3f-2124c89dddee
   Joint=636516   CoordSys=GLOBAL   CoordType=Cartesian   XorR=-10   Y=4.5   Z=0   SpecialJt=No   GUID=81a386bb-d743-4ee9-b04a-645cb2e2df50
   Joint=636517   CoordSys=GLOBAL   CoordType=Cartesian   XorR=10   Y=-4.5   Z=0   SpecialJt=No   GUID=114814ff-5a51-44f9-90d6-a2e2f007d00e
   Joint=636518   CoordSys=GLOBAL   CoordType=Cartesian   XorR=10   Y=-1.5   Z=0   SpecialJt=No   GUID=de51587a-eb78-4fa5-9c73-39b38b115402
   Joint=636519   CoordSys=GLOBAL   CoordType=Cartesian   XorR=10   Y=1.5   Z=0   SpecialJt=No   GUID=a5ddf3dc-f76c-4b5c-9844-504f8ac85c8a
   Joint=636520   CoordSys=GLOBAL   CoordType=Cartesian   XorR=10   Y=4.5   Z=0   SpecialJt=No   GUID=8cbea816-7f0b-40ba-be06-910a763f79fe
   Joint=636521   CoordSys=GLOBAL   CoordType=Cartesian   XorR=-8.6   Y=-4.5   Z=-3   SpecialJt=No   GUID=6e9f722b-afec-475b-810b-26e8a2550167
   Joint=636522   CoordSys=GLOBAL   CoordType=Cartesian   XorR=-8.6   Y=-4.5   Z=-16.7344389692158   SpecialJt=No   GUID=2cc4a989-4020-41a6-b17d-bf6e184bf4eb
   Joint=636523   CoordSys=GLOBAL   CoordType=Cartesian   XorR=-8.6   Y=-4.5   Z=-17   SpecialJt=No   GUID=737371b5-ba49-4445-91a8-e3a6ab9d100f
   Joint=636524   CoordSys=GLOBAL   CoordType=Cartesian   XorR=-4.3   Y=-4.5   Z=-3   SpecialJt=No   GUID=9784154f-1127-4a70-8d9f-d4e93c56786a
   Joint=636525   CoordSys=GLOBAL   CoordType=Cartesian   XorR=-4.3   Y=-4.5   Z=-16.7344389692158   SpecialJt=No   GUID=bda9f795-9503-4c2a-b3e3-39b0c42da611
   Joint=636526   CoordSys=GLOBAL   CoordType=Cartesian   XorR=-4.3   Y=-4.5   Z=-17   SpecialJt=No   GUID=06bab019-a0e1-41c8-a186-b9dc947611eb
   Joint=636527   CoordSys=GLOBAL   CoordType=Cartesian   XorR=0   Y=-4.5   Z=-3   SpecialJt=No   GUID=adf404e7-253c-4c47-a314-6d6f06266eae
   Joint=636528   CoordSys=GLOBAL   CoordType=Cartesian   XorR=0   Y=-4.5   Z=-16.7344389692158   SpecialJt=No   GUID=22466042-5237-495d-a9c2-0f8a693d5fda
   Joint=636529   CoordSys=GLOBAL   CoordType=Cartesian   XorR=0   Y=-4.5   Z=-17   SpecialJt=No   GUID=1bb1ab2e-f087-4e26-a258-7439e43da4f9
   Joint=636530   CoordSys=GLOBAL   CoordType=Cartesian   XorR=4.3   Y=-4.5   Z=-3   SpecialJt=No   GUID=a2ee8b05-d36f-42d0-9eb5-9b8ca03208eb
   Joint=636531   CoordSys=GLOBAL   CoordType=Cartesian   XorR=4.3   Y=-4.5   Z=-16.7344389692158   SpecialJt=No   GUID=df330f2b-0b8a-4d15-9ffa-e1c7b68a7890
   Joint=636532   CoordSys=GLOBAL   CoordType=Cartesian   XorR=4.3   Y=-4.5   Z=-17   SpecialJt=No   GUID=0182183f-db3d-4566-a709-884046968ffb
   Joint=636533   CoordSys=GLOBAL   CoordType=Cartesian   XorR=8.6   Y=-4.5   Z=-3   SpecialJt=No   GUID=1bec96af-c375-425e-a429-76c0a8268ab1
   Joint=636534   CoordSys=GLOBAL   CoordType=Cartesian   XorR=8.6   Y=-4.5   Z=-16.7344389692158   SpecialJt=No   GUID=1c8e2d5c-eec9-4f2c-813c-14ffd3eea340
   Joint=636535   CoordSys=GLOBAL   CoordType=Cartesian   XorR=8.6   Y=-4.5   Z=-17   SpecialJt=No   GUID=5c32c6a2-3aaf-4de9-804e-07765de135e6
   Joint=636536   CoordSys=GLOBAL   CoordType=Cartesian   XorR=-8.6   Y=-1.5   Z=-16.7344389692158   SpecialJt=No   GUID=a50bce10-d7cc-4687-aa0e-ab6162e66611
   Joint=636537   CoordSys=GLOBAL   CoordType=Cartesian   XorR=-8.6   Y=-1.5   Z=-17   SpecialJt=No   GUID=2d6e2d39-bf7e-497b-8498-9fdbbcdd259f
   Joint=636538   CoordSys=GLOBAL   CoordType=Cartesian   XorR=-4.3   Y=-1.5   Z=-16.7344389692158   SpecialJt=No   GUID=57b0f010-e6f1-427c-b265-d0224e472eac
   Joint=636539   CoordSys=GLOBAL   CoordType=Cartesian   XorR=-4.3   Y=-1.5   Z=-17   SpecialJt=No   GUID=02d22903-3ae0-4738-b897-426f1b1181c1
   Joint=636540   CoordSys=GLOBAL   CoordType=Cartesian   XorR=0   Y=-1.5   Z=-16.7344389692158   SpecialJt=No   GUID=c6b518f6-f80d-45b6-9ace-b4fdf65004d0
   Joint=636541   CoordSys=GLOBAL   CoordType=Cartesian   XorR=0   Y=-1.5   Z=-17   SpecialJt=No   GUID=9925bf9a-a95c-42a9-bca6-b0800bef73ab
   Joint=636542   CoordSys=GLOBAL   CoordType=Cartesian   XorR=4.3   Y=-1.5   Z=-16.7344389692158   SpecialJt=No   GUID=4e7c118a-98b9-40df-91dd-51f41b0c6ebc
   Joint=636543   CoordSys=GLOBAL   CoordType=Cartesian   XorR=4.3   Y=-1.5   Z=-17   SpecialJt=No   GUID=70b135d2-757c-41dd-a879-295d24210e40
   Joint=636544   CoordSys=GLOBAL   CoordType=Cartesian   XorR=8.6   Y=-1.5   Z=-16.7344389692158   SpecialJt=No   GUID=44978f44-4213-482b-9154-ad97b4f845ca
   Joint=636545   CoordSys=GLOBAL   CoordType=Cartesian   XorR=8.6   Y=-1.5   Z=-17   SpecialJt=No   GUID=c7839bda-08e3-4f17-b181-5ca05728a456
   Joint=636546   CoordSys=GLOBAL   CoordType=Cartesian   XorR=-8.6   Y=1.5   Z=-16.7344389692158   SpecialJt=No   GUID=e01906a0-b18a-4f9a-bfd6-e01b90de2141
   Joint=636547   CoordSys=GLOBAL   CoordType=Cartesian   XorR=-8.6   Y=1.5   Z=-17   SpecialJt=No   GUID=f32951e6-45d8-49bb-86ae-0508dce5a051
   Joint=636548   CoordSys=GLOBAL   CoordType=Cartesian   XorR=-4.3   Y=1.5   Z=-16.7344389692158   SpecialJt=No   GUID=106f6642-a830-44ff-8fbd-fbeac0c1f211
   Joint=636549   CoordSys=GLOBAL   CoordType=Cartesian   XorR=-4.3   Y=1.5   Z=-17   SpecialJt=No   GUID=78398327-769c-47f1-bcc3-d7d5afee3c4c
   Joint=636550   CoordSys=GLOBAL   CoordType=Cartesian   XorR=0   Y=1.5   Z=-16.7344389692158   SpecialJt=No   GUID=cb31110f-b1c8-4337-98b3-bb3f5c380c7b
   Joint=636551   CoordSys=GLOBAL   CoordType=Cartesian   XorR=0   Y=1.5   Z=-17   SpecialJt=No   GUID=2558d978-5f2e-49b7-aeb8-93d8441a91fa
   Joint=636552   CoordSys=GLOBAL   CoordType=Cartesian   XorR=4.3   Y=1.5   Z=-16.7344389692158   SpecialJt=No   GUID=7d3f9239-469e-4721-b1b9-e99d45c1feb2
   Joint=636553   CoordSys=GLOBAL   CoordType=Cartesian   XorR=4.3   Y=1.5   Z=-17   SpecialJt=No   GUID=a2914ec4-fb1d-4432-8989-b3d892463a52
   Joint=636554   CoordSys=GLOBAL   CoordType=Cartesian   XorR=8.6   Y=1.5   Z=-16.7344389692158   SpecialJt=No   GUID=6cdb61ee-1389-4e03-9d43-2738fa5050e1
   Joint=636555   CoordSys=GLOBAL   CoordType=Cartesian   XorR=8.6   Y=1.5   Z=-17   SpecialJt=No   GUID=972eb9d1-5aea-4edd-a24b-b3edcdd62edc
   Joint=636556   CoordSys=GLOBAL   CoordType=Cartesian   XorR=-8.6   Y=4.5   Z=-16.7344389692158   SpecialJt=No   GUID=8796c9f0-249b-48b0-ad3f-4ea03f6262d7
   Joint=636557   CoordSys=GLOBAL   CoordType=Cartesian   XorR=-8.6   Y=4.5   Z=-17   SpecialJt=No   GUID=fc3a1fcf-a333-4e05-b825-122c6feb3046
   Joint=636558   CoordSys=GLOBAL   CoordType=Cartesian   XorR=-4.3   Y=4.5   Z=-16.7344389692158   SpecialJt=No   GUID=e796db85-eee8-40ed-aa41-93e848457fae
   Joint=636559   CoordSys=GLOBAL   CoordType=Cartesian   XorR=-4.3   Y=4.5   Z=-17   SpecialJt=No   GUID=369f01c9-dbe0-499c-9b40-a15173222a42
   Joint=636560   CoordSys=GLOBAL   CoordType=Cartesian   XorR=0   Y=4.5   Z=-16.7344389692158   SpecialJt=No   GUID=8daa5a60-5db0-4191-81ce-83cb0ce70a1e
   Joint=636561   CoordSys=GLOBAL   CoordType=Cartesian   XorR=0   Y=4.5   Z=-17   SpecialJt=No   GUID=71299528-9dbd-4f85-9369-2c55bacf767c
   Joint=636562   CoordSys=GLOBAL   CoordType=Cartesian   XorR=4.3   Y=4.5   Z=-16.7344389692158   SpecialJt=No   GUID=c0cd355c-1257-4ce6-bdfc-83dfa00697f4
   Joint=636563   CoordSys=GLOBAL   CoordType=Cartesian   XorR=4.3   Y=4.5   Z=-17   SpecialJt=No   GUID=f4947857-321b-4ffc-9861-55b90b223562
   Joint=636564   CoordSys=GLOBAL   CoordType=Cartesian   XorR=8.6   Y=4.5   Z=-16.7344389692158   SpecialJt=No   GUID=98a86bcb-d175-4e9c-be49-29c6ff805c88
   Joint=636565   CoordSys=GLOBAL   CoordType=Cartesian   XorR=8.6   Y=4.5   Z=-17   SpecialJt=No   GUID=223c900c-f245-4ef2-81ad-96af70f799b7
   Joint=636566   CoordSys=GLOBAL   CoordType=Cartesian   XorR=-10   Y=-5   Z=0   SpecialJt=No   GUID=670feb85-e10c-44bf-b67e-ab7838405d7d
   Joint=636567   CoordSys=GLOBAL   CoordType=Cartesian   XorR=10   Y=-5   Z=0   SpecialJt=No   GUID=59047d02-d550-413d-b6fb-430c94424ea3
   Joint=636568   CoordSys=GLOBAL   CoordType=Cartesian   XorR=-10   Y=5   Z=0   SpecialJt=No   GUID=919e3627-6663-435a-bce2-fb364ee2ad39
   Joint=636569   CoordSys=GLOBAL   CoordType=Cartesian   XorR=10   Y=5   Z=0   SpecialJt=No   GUID=7bbd7a7f-98f4-47ec-a78a-4ca942b7ede5
 
TABLE:  "JOINT PATTERN DEFINITIONS"
   Pattern=Default
 
TABLE:  "JOINT RESTRAINT ASSIGNMENTS"
   Joint=636522   U1=Yes   U2=Yes   U3=No   R1=Yes   R2=Yes   R3=Yes
   Joint=636523   U1=No   U2=No   U3=Yes   R1=No   R2=No   R3=No
   Joint=636525   U1=Yes   U2=Yes   U3=No   R1=Yes   R2=Yes   R3=Yes
   Joint=636526   U1=No   U2=No   U3=Yes   R1=No   R2=No   R3=No
   Joint=636528   U1=Yes   U2=Yes   U3=No   R1=Yes   R2=Yes   R3=Yes
   Joint=636529   U1=No   U2=No   U3=Yes   R1=No   R2=No   R3=No
   Joint=636531   U1=Yes   U2=Yes   U3=No   R1=Yes   R2=Yes   R3=Yes
   Joint=636532   U1=No   U2=No   U3=Yes   R1=No   R2=No   R3=No
   Joint=636534   U1=Yes   U2=Yes   U3=No   R1=Yes   R2=Yes   R3=Yes
   Joint=636535   U1=No   U2=No   U3=Yes   R1=No   R2=No   R3=No
   Joint=636536   U1=Yes   U2=Yes   U3=No   R1=Yes   R2=Yes   R3=Yes
   Joint=636537   U1=No   U2=No   U3=Yes   R1=No   R2=No   R3=No
   Joint=636538   U1=Yes   U2=Yes   U3=No   R1=Yes   R2=Yes   R3=Yes
   Joint=636539   U1=No   U2=No   U3=Yes   R1=No   R2=No   R3=No
   Joint=636540   U1=Yes   U2=Yes   U3=No   R1=Yes   R2=Yes   R3=Yes
   Joint=636541   U1=No   U2=No   U3=Yes   R1=No   R2=No   R3=No
   Joint=636542   U1=Yes   U2=Yes   U3=No   R1=Yes   R2=Yes   R3=Yes
   Joint=636543   U1=No   U2=No   U3=Yes   R1=No   R2=No   R3=No
   Joint=636544   U1=Yes   U2=Yes   U3=No   R1=Yes   R2=Yes   R3=Yes
   Joint=636545   U1=No   U2=No   U3=Yes   R1=No   R2=No   R3=No
   Joint=636546   U1=Yes   U2=Yes   U3=No   R1=Yes   R2=Yes   R3=Yes
   Joint=636547   U1=No   U2=No   U3=Yes   R1=No   R2=No   R3=No
   Joint=636548   U1=Yes   U2=Yes   U3=No   R1=Yes   R2=Yes   R3=Yes
   Joint=636549   U1=No   U2=No   U3=Yes   R1=No   R2=No   R3=No
   Joint=636550   U1=Yes   U2=Yes   U3=No   R1=Yes   R2=Yes   R3=Yes
   Joint=636551   U1=No   U2=No   U3=Yes   R1=No   R2=No   R3=No
   Joint=636552   U1=Yes   U2=Yes   U3=No   R1=Yes   R2=Yes   R3=Yes
   Joint=636553   U1=No   U2=No   U3=Yes   R1=No   R2=No   R3=No
   Joint=636554   U1=Yes   U2=Yes   U3=No   R1=Yes   R2=Yes   R3=Yes
   Joint=636555   U1=No   U2=No   U3=Yes   R1=No   R2=No   R3=No
   Joint=636556   U1=Yes   U2=Yes   U3=No   R1=Yes   R2=Yes   R3=Yes
   Joint=636557   U1=No   U2=No   U3=Yes   R1=No   R2=No   R3=No
   Joint=636558   U1=Yes   U2=Yes   U3=No   R1=Yes   R2=Yes   R3=Yes
   Joint=636559   U1=No   U2=No   U3=Yes   R1=No   R2=No   R3=No
   Joint=636560   U1=Yes   U2=Yes   U3=No   R1=Yes   R2=Yes   R3=Yes
   Joint=636561   U1=No   U2=No   U3=Yes   R1=No   R2=No   R3=No
   Joint=636562   U1=Yes   U2=Yes   U3=No   R1=Yes   R2=Yes   R3=Yes
   Joint=636563   U1=No   U2=No   U3=Yes   R1=No   R2=No   R3=No
   Joint=636564   U1=Yes   U2=Yes   U3=No   R1=Yes   R2=Yes   R3=Yes
   Joint=636565   U1=No   U2=No   U3=Yes   R1=No   R2=No   R3=No
 
TABLE:  "LOAD CASE DEFINITIONS"
   Case=DEAD   Type=LinStatic   InitialCond=Zero   DesTypeOpt="Prog Det"   DesignType=Dead   DesActOpt="Prog Det"   DesignAct=Non-Composite   AutoType=None   RunCase=Yes
   Case=MODAL   Type=LinModal   InitialCond=Zero   DesTypeOpt="Prog Det"   DesignType=Other   DesActOpt="Prog Det"   DesignAct=Other   AutoType=None   RunCase=Yes
   Case=LL   Type=LinStatic   InitialCond=Zero   DesTypeOpt="Prog Det"   DesignType=Live   DesActOpt="Prog Det"   DesignAct="Short-Term Composite"   AutoType=None   RunCase=Yes
 
TABLE:  "LOAD PATTERN DEFINITIONS"
   LoadPat=DEAD   DesignType=Dead   SelfWtMult=1
   LoadPat=LL   DesignType=Live   SelfWtMult=0
 
TABLE:  "MASS SOURCE"
   MassSource=MSSSRC1   Elements=Yes   Masses=Yes   Loads=No   IsDefault=Yes
 
TABLE:  "MATERIAL PROPERTIES 01 - GENERAL"
   Material=A706   Type=Rebar   SymType=Uniaxial   TempDepend=No   Color=Gray8Dark   GUID=30185aab-1311-4f4b-9ffe-ddad707d22d9   Notes="ASTM A706 added 8/23/2025 4:27:57 PM"
   Material=BTCT   Type=Concrete   SymType=Isotropic   TempDepend=No   Color=Blue   Notes="Concrete added 24-Feb-23 16:30:01"
   Material=BTCTCOC   Type=Concrete   SymType=Isotropic   TempDepend=No   Color=Blue   Notes="Concrete added 24-Feb-23 16:30:01"
   Material=Steel   Type=Steel   SymType=Isotropic   TempDepend=No   Color=Magenta   GUID=2f952889-4898-4964-97a4-5fb5c5008d33   Notes="Steel added 8/24/2025 2:51:43 PM"
   Material=Tendon   Type=Tendon   SymType=Uniaxial   TempDepend=No   Color=Yellow   GUID=7dfcd093-823e-4b3a-b96f-35d5bcaf456f   Notes="Tendon added 8/24/2025 2:51:43 PM"
 
TABLE:  "MATERIAL PROPERTIES 02 - BASIC MECHANICAL PROPERTIES"
   Material=A706   UnitWeight=7.84904757236607   UnitMass=0.800380070686609   E1=20389019.1580383   A1=1.16999994421006E-05
   Material=BTCT   UnitWeight=2.40276966501002   UnitMass=0.245014307353044   E1=2900000   G12=1208333.33333333   U12=0.2   A1=9.9E-06
   Material=BTCTCOC   UnitWeight=2.40276966501002   UnitMass=0.245014307353044   E1=3800000000   G12=1583333333.33333   U12=0.2   A1=9.9E-06
   Material=Steel   UnitWeight=7.84904757236607   UnitMass=0.800380070686609   E1=20389019.1580383   G12=7841930.44539935   U12=0.3   A1=1.17E-05
   Material=Tendon   UnitWeight=7.84904757236607   UnitMass=0.800380070686609   E1=20037484.3449687   A1=1.16999994421006E-05
 
TABLE:  "MATERIAL PROPERTIES 03A - STEEL DATA"
   Material=Steel   Fy=35153.4813069626   Fu=45699.5256990514   EffFy=38668.8294376589   EffFu=50269.4782689565   SSCurveOpt=Simple   SSHysType=Kinematic   SHard=0.015   SMax=0.11   SRup=0.17   FinalSlope=-0.1   CoupModType="Von Mises"
 
TABLE:  "MATERIAL PROPERTIES 03B - CONCRETE DATA"
   Material=BTCT   Fc=2812.27850455701   eFc=2812.27850455701   LtWtConc=No   SSCurveOpt=Mander   SSHysType=Takeda   SFc=0.002   SCap=0.005   FinalSlope=-0.1   FAngle=0   DAngle=0   CoupModType="Modified Darwin-Pecknold"
   Material=BTCTCOC   Fc=2812.27850455701   eFc=2812.27850455701   LtWtConc=No   SSCurveOpt=Mander   SSHysType=Takeda   SFc=0.002   SCap=0.005   FinalSlope=-0.1   FAngle=0   DAngle=0   CoupModType="Modified Darwin-Pecknold"
 
TABLE:  "MATERIAL PROPERTIES 03E - REBAR DATA"
   Material=A706   Fy=42184.1775683551   Fu=56245.5700911402   EffFy=46402.5953251907   EffFu=61870.1271002542   SSCurveOpt=Simple   SSHysType=Kinematic   SHard=0.011   SCap=0.11   FinalSlope=-0.1   UseCTDef=No   CoupModType="Von Mises"
 
TABLE:  "MATERIAL PROPERTIES 03F - TENDON DATA"
   Material=Tendon   Fy=172322.365366731   Fu=189828.799057598   SSCurveOpt="270 ksi"   SSHysType=Kinematic   FinalSlope=-0.1   CoupModType="Von Mises"
 
TABLE:  "MATERIAL PROPERTIES 03J - COUPLED NONLINEAR VON MISES DATA"
   Material=A706   YieldStress=46402.5953251907   LinIsoHard=No   LinKinHard=No   NLIsoSaHard=No
   Material=Steel   YieldStress=38668.8294376589   LinIsoHard=No   LinKinHard=No   NLIsoSaHard=No
   Material=Tendon   YieldStress=172322.365366731   LinIsoHard=No   LinKinHard=No   NLIsoSaHard=No
 
TABLE:  "MATERIAL PROPERTIES 06 - DAMPING PARAMETERS"
   Material=A706   ModalRatio=0   VisMass=0   VisStiff=0   HysMass=0   HysStiff=0
   Material=BTCT   ModalRatio=0   VisMass=0   VisStiff=0   HysMass=0   HysStiff=0
   Material=BTCTCOC   ModalRatio=0   VisMass=0   VisStiff=0   HysMass=0   HysStiff=0
   Material=Steel   ModalRatio=0   VisMass=0   VisStiff=0   HysMass=0   HysStiff=0
   Material=Tendon   ModalRatio=0   VisMass=0   VisStiff=0   HysMass=0   HysStiff=0
 
TABLE:  "MATERIAL PROPERTIES 09 - ACCEPTANCE CRITERIA"
   Material=A706   IOTens=0.01   LSTens=0.02   CPTens=0.05   IOComp=-0.005   LSComp=-0.01   CPComp=-0.02
   Material=BTCT   IOTens=0.01   LSTens=0.02   CPTens=0.05   IOComp=-0.003   LSComp=-0.006   CPComp=-0.015   IgnoreTens=Yes
   Material=BTCTCOC   IOTens=0.01   LSTens=0.02   CPTens=0.05   IOComp=-0.003   LSComp=-0.006   CPComp=-0.015   IgnoreTens=Yes
   Material=Steel   IOTens=0.01   LSTens=0.02   CPTens=0.05   IOComp=-0.005   LSComp=-0.01   CPComp=-0.02
   Material=Tendon   IOTens=0.015   LSTens=0.023   CPTens=0.03   IOComp=-0.015   LSComp=-0.023   CPComp=-0.03
 
TABLE:  "OPTIONS - COLORS - DISPLAY"
   DeviceType=Screen   Points=Blue   LinesFrame=Blue   LinesFrmDL=Blue   LinesCable=Green   LinesTendon=Green   SpringLinks=Green   Restraints=Green   Releases=Green   Axes=Cyan   Text=Black   ShadowLines=Gray8Dark   GuideLines=Gray8Dark _
        Highlight=Red   Selection=10504778   AreaFillBot=Red   AreaFillTop=16744703   AreaFillSd=Red   AreaEdge=DarkRed   SolidF1=Red   SolidF2=Blue   SolidF3=Green   SolidF4=Yellow   SolidF5=White   SolidF6=Cyan   SolidEdge=DarkRed _
        Floor=Gray4   Background=White   BGLowLeft=White   BGLowRight=White   BGUpRight=White   Darkness=0.5
   DeviceType=Printer   Points=Gray8Dark   LinesFrame=Black   LinesFrmDL=Gray4   LinesCable=Black   LinesTendon=Black   SpringLinks=Gray8Dark   Restraints=Gray8Dark   Releases=Gray4   Axes=Black   Text=Black   ShadowLines=Gray4 _
        GuideLines=Gray4   Highlight=Black   Selection=Black   AreaFillBot=Gray4   AreaFillTop=Gray8Dark   AreaFillSd=Gray4   AreaEdge=Black   SolidF1=Gray1Light   SolidF2=Gray2   SolidF3=Gray3   SolidF4=Gray4   SolidF5=Gray5 _
        SolidF6=Gray6   SolidEdge=Black   Floor=Gray4   Background=White   BGLowLeft=White   BGLowRight=White   BGUpRight=White   Darkness=0.5
   DeviceType="Color Printer"   Points=Blue   LinesFrame=Blue   LinesFrmDL=Blue   LinesCable=Green   LinesTendon=Green   SpringLinks=Green   Restraints=Green   Releases=Green   Axes=Cyan   Text=Black   ShadowLines=Gray8Dark _
        GuideLines=Gray8Dark   Highlight=Red   Selection=10504778   AreaFillBot=Red   AreaFillTop=16744703   AreaFillSd=Red   AreaEdge=DarkRed   SolidF1=Red   SolidF2=Blue   SolidF3=Green   SolidF4=Yellow   SolidF5=White   SolidF6=Cyan _
        SolidEdge=DarkRed   Floor=Gray4   Background=White   BGLowLeft=White   BGLowRight=White   BGUpRight=White   Darkness=0.5
 
TABLE:  "OPTIONS - COLORS - OUTPUT"
   DeviceType=Screen   Contour1=13107400   Contour2=6553828   Contour3=Red   Contour4=16639   Contour5=Orange   Contour6=43775   Contour7=54527   Contour8=Yellow   Contour9=65408   Contour10=Green   Contour11=8453888   Contour12=Cyan _
        Contour13=16755200   Contour14=16733440   Contour15=Blue   Transpare=0.5   Ratio1=Cyan   Ratio2=Green   Ratio3=Yellow   Ratio4=Orange   Ratio5=Red   RatioNotD=Gray4   RatioNotC=Red   RatioVal1=0.5   RatioVal2=0.7   RatioVal3=0.9 _
        RatioVal4=1   DFillPos=Blue   DFillNeg=Red   DFillRPos=Green   DFillRNeg=Green
   DeviceType=Printer   Contour1=Black   Contour2=3158064   Contour3=4210752   Contour4=5263440   Contour5=6316128   Contour6=7368816   Contour7=Gray8Dark   Contour8=Gray7   Contour9=Gray6   Contour10=Gray5   Contour11=Gray4 _
        Contour12=Gray3   Contour13=Gray2   Contour14=Gray1Light   Contour15=White   Transpare=0   Ratio1=Gray2   Ratio2=Gray4   Ratio3=Gray8Dark   Ratio4=4210752   Ratio5=Black   RatioNotD=Gray4   RatioNotC=Black   RatioVal1=0.5 _
        RatioVal2=0.7   RatioVal3=0.9   RatioVal4=1   DFillPos=Gray8Dark   DFillNeg=Gray8Dark   DFillRPos=4210752   DFillRNeg=4210752
   DeviceType="Color Printer"   Contour1=13107400   Contour2=6553828   Contour3=Red   Contour4=16639   Contour5=Orange   Contour6=43775   Contour7=54527   Contour8=Yellow   Contour9=65408   Contour10=Green   Contour11=8453888 _
        Contour12=Cyan   Contour13=16755200   Contour14=16733440   Contour15=Blue   Transpare=0   Ratio1=Cyan   Ratio2=Green   Ratio3=Yellow   Ratio4=Orange   Ratio5=Red   RatioNotD=Gray4   RatioNotC=Red   RatioVal1=0.5   RatioVal2=0.7 _
        RatioVal3=0.9   RatioVal4=1   DFillPos=Blue   DFillNeg=Red   DFillRPos=Green   DFillRNeg=Green
 
TABLE:  "OVERWRITES - CONCRETE DESIGN - CSA-A233-14"
   Frame=738034   DesignSect="Program Determined"   FrameType="Program Determined"   RLLF=0   XLMajor=0   XLMinor=0   XKMajor=0   XKMinor=0   CmMajor=0   CmMinor=0   DbMajor=0   DbMinor=0   DsMajor=0   DsMinor=0   Rd=0   Ro=0   MaxAggSize=0
   Frame=738035   DesignSect="Program Determined"   FrameType="Program Determined"   RLLF=0   XLMajor=0   XLMinor=0   XKMajor=0   XKMinor=0   CmMajor=0   CmMinor=0   DbMajor=0   DbMinor=0   DsMajor=0   DsMinor=0   Rd=0   Ro=0   MaxAggSize=0
   Frame=738036   DesignSect="Program Determined"   FrameType="Program Determined"   RLLF=0   XLMajor=0   XLMinor=0   XKMajor=0   XKMinor=0   CmMajor=0   CmMinor=0   DbMajor=0   DbMinor=0   DsMajor=0   DsMinor=0   Rd=0   Ro=0   MaxAggSize=0
   Frame=738037   DesignSect="Program Determined"   FrameType="Program Determined"   RLLF=0   XLMajor=0   XLMinor=0   XKMajor=0   XKMinor=0   CmMajor=0   CmMinor=0   DbMajor=0   DbMinor=0   DsMajor=0   DsMinor=0   Rd=0   Ro=0   MaxAggSize=0
   Frame=738038   DesignSect="Program Determined"   FrameType="Program Determined"   RLLF=0   XLMajor=0   XLMinor=0   XKMajor=0   XKMinor=0   CmMajor=0   CmMinor=0   DbMajor=0   DbMinor=0   DsMajor=0   DsMinor=0   Rd=0   Ro=0   MaxAggSize=0
   Frame=738039   DesignSect="Program Determined"   FrameType="Program Determined"   RLLF=0   XLMajor=0   XLMinor=0   XKMajor=0   XKMinor=0   CmMajor=0   CmMinor=0   DbMajor=0   DbMinor=0   DsMajor=0   DsMinor=0   Rd=0   Ro=0   MaxAggSize=0
   Frame=738040   DesignSect="Program Determined"   FrameType="Program Determined"   RLLF=0   XLMajor=0   XLMinor=0   XKMajor=0   XKMinor=0   CmMajor=0   CmMinor=0   DbMajor=0   DbMinor=0   DsMajor=0   DsMinor=0   Rd=0   Ro=0   MaxAggSize=0
   Frame=738041   DesignSect="Program Determined"   FrameType="Program Determined"   RLLF=0   XLMajor=0   XLMinor=0   XKMajor=0   XKMinor=0   CmMajor=0   CmMinor=0   DbMajor=0   DbMinor=0   DsMajor=0   DsMinor=0   Rd=0   Ro=0   MaxAggSize=0
   Frame=738042   DesignSect="Program Determined"   FrameType="Program Determined"   RLLF=0   XLMajor=0   XLMinor=0   XKMajor=0   XKMinor=0   CmMajor=0   CmMinor=0   DbMajor=0   DbMinor=0   DsMajor=0   DsMinor=0   Rd=0   Ro=0   MaxAggSize=0
   Frame=738043   DesignSect="Program Determined"   FrameType="Program Determined"   RLLF=0   XLMajor=0   XLMinor=0   XKMajor=0   XKMinor=0   CmMajor=0   CmMinor=0   DbMajor=0   DbMinor=0   DsMajor=0   DsMinor=0   Rd=0   Ro=0   MaxAggSize=0
   Frame=738044   DesignSect="Program Determined"   FrameType="Program Determined"   RLLF=0   XLMajor=0   XLMinor=0   XKMajor=0   XKMinor=0   CmMajor=0   CmMinor=0   DbMajor=0   DbMinor=0   DsMajor=0   DsMinor=0   Rd=0   Ro=0   MaxAggSize=0
   Frame=738045   DesignSect="Program Determined"   FrameType="Program Determined"   RLLF=0   XLMajor=0   XLMinor=0   XKMajor=0   XKMinor=0   CmMajor=0   CmMinor=0   DbMajor=0   DbMinor=0   DsMajor=0   DsMinor=0   Rd=0   Ro=0   MaxAggSize=0
   Frame=738046   DesignSect="Program Determined"   FrameType="Program Determined"   RLLF=0   XLMajor=0   XLMinor=0   XKMajor=0   XKMinor=0   CmMajor=0   CmMinor=0   DbMajor=0   DbMinor=0   DsMajor=0   DsMinor=0   Rd=0   Ro=0   MaxAggSize=0
   Frame=738047   DesignSect="Program Determined"   FrameType="Program Determined"   RLLF=0   XLMajor=0   XLMinor=0   XKMajor=0   XKMinor=0   CmMajor=0   CmMinor=0   DbMajor=0   DbMinor=0   DsMajor=0   DsMinor=0   Rd=0   Ro=0   MaxAggSize=0
   Frame=738048   DesignSect="Program Determined"   FrameType="Program Determined"   RLLF=0   XLMajor=0   XLMinor=0   XKMajor=0   XKMinor=0   CmMajor=0   CmMinor=0   DbMajor=0   DbMinor=0   DsMajor=0   DsMinor=0   Rd=0   Ro=0   MaxAggSize=0
   Frame=738049   DesignSect="Program Determined"   FrameType="Program Determined"   RLLF=0   XLMajor=0   XLMinor=0   XKMajor=0   XKMinor=0   CmMajor=0   CmMinor=0   DbMajor=0   DbMinor=0   DsMajor=0   DsMinor=0   Rd=0   Ro=0   MaxAggSize=0
   Frame=738050   DesignSect="Program Determined"   FrameType="Program Determined"   RLLF=0   XLMajor=0   XLMinor=0   XKMajor=0   XKMinor=0   CmMajor=0   CmMinor=0   DbMajor=0   DbMinor=0   DsMajor=0   DsMinor=0   Rd=0   Ro=0   MaxAggSize=0
   Frame=738051   DesignSect="Program Determined"   FrameType="Program Determined"   RLLF=0   XLMajor=0   XLMinor=0   XKMajor=0   XKMinor=0   CmMajor=0   CmMinor=0   DbMajor=0   DbMinor=0   DsMajor=0   DsMinor=0   Rd=0   Ro=0   MaxAggSize=0
   Frame=738052   DesignSect="Program Determined"   FrameType="Program Determined"   RLLF=0   XLMajor=0   XLMinor=0   XKMajor=0   XKMinor=0   CmMajor=0   CmMinor=0   DbMajor=0   DbMinor=0   DsMajor=0   DsMinor=0   Rd=0   Ro=0   MaxAggSize=0
   Frame=738053   DesignSect="Program Determined"   FrameType="Program Determined"   RLLF=0   XLMajor=0   XLMinor=0   XKMajor=0   XKMinor=0   CmMajor=0   CmMinor=0   DbMajor=0   DbMinor=0   DsMajor=0   DsMinor=0   Rd=0   Ro=0   MaxAggSize=0
# ... 38 like lines cut
 
TABLE:  "PREFERENCES - ALUMINUM DESIGN - AA 2015"
   THDesign=Envelopes   SRatioLimit=1   Provision=ASD   LatFact=1.33333333333333   UseLatFact=No   Bridge=No   OmegaTy=1.65   OmegaTr=1.95   OmegaC=1.65   OmegaBo=1.65   OmegaBr=1.95   OmegaVo=1.65   OmegaVr=1.95
 
TABLE:  "PREFERENCES - COLD FORMED DESIGN - AISI-ASD96"
   THDesign=Envelopes   FrameType="Braced Frame"   SRatioLimit=1   MaxIter=1   OmegaBS=1.67   OmegaBUS=1.67   OmegaBLTB=1.67   OmegaVS=1.67   OmegaVNS=1.5   OmegaT=1.67   OmegaC=1.8
 
TABLE:  "PREFERENCES - CONCRETE DESIGN - CSA-A233-14"
   THDesign=Envelopes   NumCurves=24   NumPoints=11   MinEccen=Yes   BCCDesign=Yes   CTorsion=Yes   PatLLF=0.75   UFLimit=0.95   PhiS=0.85   PhiC=0.65
 
TABLE:  "PREFERENCES - CONCRETE SHELL DESIGN - EUROCODE 2-2004"
   Country="CEN Default"   GammaS=1.15   GammaC=1.5   AlphaCC=1
 
TABLE:  "PREFERENCES - DIMENSIONAL"
   MergeTol=0.001   FineGrid=0.25   Nudge=0.25   SelectTol=3   SnapTol=12   SLineThick=1   PLineThick=4   MaxFont=8   MinFont=3   AutoZoom=10   ShrinkFact=70   TextFileLen=240
 
TABLE:  "PREFERENCES - STEEL DESIGN - AISC 360-10"
   THDesign=Envelopes   FrameType=SMF   PatLLF=0.75   SRatioLimit=0.95   MaxIter=1   SDC=D   SeisCode=No   SeisLoad=No   ImpFactor=1   SystemRho=1   SystemSds=0.5   SystemR=8   SystemCd=5.5   Omega0=3   Provision=LRFD _
        AMethod="Direct Analysis"   SOMethod="General 2nd Order"   SRMethod="Tau-b Fixed"   NLCoeff=0.002   PhiB=0.9   PhiC=0.9   PhiTY=0.9   PhiTF=0.75   PhiV=0.9   PhiVRolledI=1   PhiVT=0.9   PlugWeld=Yes   HSSWelding=ERW   HSSReduceT=No _
        CheckDefl=No   DLRat=120   SDLAndLLRat=120   LLRat=360   TotalRat=240   NetRat=240
 
TABLE:  "PROGRAM CONTROL"
   ProgramName=SAP2000   Version=24.0.0   CurrUnits="Tonf, m, C"   SteelCode="AISC 360-10"   ConcCode="CSA A23.3-14"   AlumCode="AA 2015"   ColdCode=AISI-ASD96   RegenHinge=Yes
 
TABLE:  "PROJECT INFORMATION"
   Item="Company Name"   Data=po
   Item="Client Name"
   Item="Project Name"
   Item="Project Number"
   Item="Model Name"
   Item="Model Description"
   Item="Revision Number"
   Item="Frame Type"
   Item=Engineer
   Item=Checker
   Item=Supervisor
   Item="Issue Code"
   Item="Design Code"
 
TABLE:  "REBAR SIZES"
   RebarID=#2   Area=3.2258E-05   Diameter=0.00635
   RebarID=#3   Area=7.09675996154547E-05   Diameter=0.009525
   RebarID=#4   Area=0.000129032001922727   Diameter=0.0127
   RebarID=#5   Area=0.000199999601538181   Diameter=0.015875
   RebarID=#6   Area=0.000283870398461819   Diameter=0.01905
   RebarID=#7   Area=0.000387096015381813   Diameter=0.022225
   RebarID=#8   Area=0.000509676413843632   Diameter=0.0254
   RebarID=#9   Area=0.00064516   Diameter=0.0286512005329132
   RebarID=#10   Area=0.00081935318769455   Diameter=0.0322579995155334
   RebarID=#11   Area=0.00100644956308365   Diameter=0.0358139991521835
   RebarID=#14   Area=0.00145161   Diameter=0.0430021989583969
   RebarID=#18   Area=0.00258064   Diameter=0.0573277992248535
   RebarID=10M   Area=0.000100000004162606   Diameter=0.0113000003604438
   RebarID=15M   Area=0.000200000008325212   Diameter=0.0160000002402959
   RebarID=20M   Area=0.000300000012487818   Diameter=0.0195000002928606
   RebarID=25M   Area=0.000500000020813031   Diameter=0.0252000011414055
   RebarID=30M   Area=0.000700000029138243   Diameter=0.0299000000675832
   RebarID=35M   Area=0.00100000004162606   Diameter=0.0357000012990997
   RebarID=45M   Area=0.00150000006243909   Diameter=0.0437000014192476
   RebarID=55M   Area=0.00250000010406515   Diameter=0.056400002372922
   RebarID=6d   Area=2.83000004150781E-05   Diameter=0.00600000009011096
   RebarID=8d   Area=5.03000013308514E-05   Diameter=0.00800000012014795
   RebarID=10d   Area=7.85000032676458E-05   Diameter=0.0100000001501849
   RebarID=12d   Area=0.000113000004703745   Diameter=0.0120000001802219
   RebarID=14d   Area=0.000154000006410413   Diameter=0.0140000002102589
   RebarID=16d   Area=0.000201000008366838   Diameter=0.0160000002402959
   RebarID=20d   Area=0.000314000013070583   Diameter=0.0200000003003699
   RebarID=25d   Area=0.000491000020438396   Diameter=0.0250000003754623
   RebarID=26d   Area=0.000531000022103439   Diameter=0.0260000003904808
   RebarID=28d   Area=0.000616000025641654   Diameter=0.0280000004205178
   RebarID=N12   Area=0.000113000004703745   Diameter=0.0120000001802219
   RebarID=N16   Area=0.000201000008366838   Diameter=0.0160000002402959
   RebarID=N20   Area=0.000314000013070583   Diameter=0.0200000003003699
   RebarID=N24   Area=0.00045200001881498   Diameter=0.0240000003604438
   RebarID=N28   Area=0.000616000025641654   Diameter=0.0280000004205178
   RebarID=N32   Area=0.000804000033467353   Diameter=0.0320000004805918
   RebarID=N36   Area=0.00102000004245858   Diameter=0.0360000005406658
 
TABLE:  "SOLID PROPERTY DEFINITIONS"
   SolidProp=Solid1   Material=BTCT   MatAngleA=0   MatAngleB=0   MatAngleC=0   InComp=Yes   Color=Gray8Dark
 
END TABLE DATA
