File D:\OneDrive\Nature-Inspired Optimization Algorithms\Multiobjectives\MOSFOA\MPJ_Sap\W03\MPJ_3.$2k was saved on m/d/yy at h:mm:ss
 
TABLE:  "ACTIVE DEGREES OF FREEDOM"
   UX=Yes   UY=Yes   UZ=Yes   RX=Yes   RY=Yes   RZ=Yes
 
TABLE:  "ANALYSIS OPTIONS"
   Solver=Advanced   SolverProc=Auto   Force32Bit=No   StiffCase=None   GeomMod=None   HingeOpt="In Elements"   NumAThreads=0   MaxFileSize=0   NumDThreads=0   NumRThreads=0   UseMMFiles="Program Determined"   AllowDiff=No
 
TABLE:  "AREA AUTO MESH ASSIGNMENTS"
   Area=227   MeshType="Number of Elements"   MeshGroup=ALL   Number1=3   Number2=3   LocalEdge=No   LocalFace=No   SuppEdge=No   SuppFace=No   SubMesh=No
   Area=228   MeshType="Number of Elements"   MeshGroup=ALL   Number1=3   Number2=3   LocalEdge=No   LocalFace=No   SuppEdge=No   SuppFace=No   SubMesh=No
   Area=229   MeshType="Number of Elements"   MeshGroup=ALL   Number1=3   Number2=3   LocalEdge=No   LocalFace=No   SuppEdge=No   SuppFace=No   SubMesh=No
   Area=230   MeshType="Number of Elements"   MeshGroup=ALL   Number1=3   Number2=3   LocalEdge=No   LocalFace=No   SuppEdge=No   SuppFace=No   SubMesh=No
   Area=231   MeshType="Number of Elements"   MeshGroup=ALL   Number1=3   Number2=3   LocalEdge=No   LocalFace=No   SuppEdge=No   SuppFace=No   SubMesh=No
   Area=232   MeshType="Number of Elements"   MeshGroup=ALL   Number1=3   Number2=3   LocalEdge=No   LocalFace=No   SuppEdge=No   SuppFace=No   SubMesh=No
   Area=233   MeshType="Number of Elements"   MeshGroup=ALL   Number1=3   Number2=3   LocalEdge=No   LocalFace=No   SuppEdge=No   SuppFace=No   SubMesh=No
   Area=234   MeshType="Number of Elements"   MeshGroup=ALL   Number1=3   Number2=3   LocalEdge=No   LocalFace=No   SuppEdge=No   SuppFace=No   SubMesh=No
   Area=235   MeshType="Number of Elements"   MeshGroup=ALL   Number1=3   Number2=3   LocalEdge=No   LocalFace=No   SuppEdge=No   SuppFace=No   SubMesh=No
   Area=236   MeshType="Number of Elements"   MeshGroup=ALL   Number1=3   Number2=3   LocalEdge=No   LocalFace=No   SuppEdge=No   SuppFace=No   SubMesh=No
   Area=237   MeshType="Number of Elements"   MeshGroup=ALL   Number1=3   Number2=3   LocalEdge=No   LocalFace=No   SuppEdge=No   SuppFace=No   SubMesh=No
   Area=238   MeshType="Number of Elements"   MeshGroup=ALL   Number1=3   Number2=3   LocalEdge=No   LocalFace=No   SuppEdge=No   SuppFace=No   SubMesh=No
   Area=239   MeshType="Number of Elements"   MeshGroup=ALL   Number1=3   Number2=3   LocalEdge=No   LocalFace=No   SuppEdge=No   SuppFace=No   SubMesh=No
   Area=240   MeshType="Number of Elements"   MeshGroup=ALL   Number1=3   Number2=3   LocalEdge=No   LocalFace=No   SuppEdge=No   SuppFace=No   SubMesh=No
   Area=241   MeshType="Number of Elements"   MeshGroup=ALL   Number1=3   Number2=3   LocalEdge=No   LocalFace=No   SuppEdge=No   SuppFace=No   SubMesh=No
   Area=242   MeshType="Number of Elements"   MeshGroup=ALL   Number1=3   Number2=3   LocalEdge=No   LocalFace=No   SuppEdge=No   SuppFace=No   SubMesh=No
   Area=243   MeshType="Number of Elements"   MeshGroup=ALL   Number1=3   Number2=3   LocalEdge=No   LocalFace=No   SuppEdge=No   SuppFace=No   SubMesh=No
   Area=244   MeshType="Number of Elements"   MeshGroup=ALL   Number1=3   Number2=3   LocalEdge=No   LocalFace=No   SuppEdge=No   SuppFace=No   SubMesh=No
   Area=245   MeshType="Number of Elements"   MeshGroup=ALL   Number1=3   Number2=3   LocalEdge=No   LocalFace=No   SuppEdge=No   SuppFace=No   SubMesh=No
   Area=246   MeshType="Number of Elements"   MeshGroup=ALL   Number1=3   Number2=3   LocalEdge=No   LocalFace=No   SuppEdge=No   SuppFace=No   SubMesh=No
# ... 12 like lines cut
 
TABLE:  "AREA LOADS - UNIFORM"
   Area=227   LoadPat=LL   CoordSys=GLOBAL   Dir=Gravity   UnifLoad=1.00034158457019
   Area=228   LoadPat=LL   CoordSys=GLOBAL   Dir=Gravity   UnifLoad=1.00034158457019
   Area=229   LoadPat=LL   CoordSys=GLOBAL   Dir=Gravity   UnifLoad=1.00034158457019
   Area=230   LoadPat=LL   CoordSys=GLOBAL   Dir=Gravity   UnifLoad=1.00034158457019
   Area=231   LoadPat=LL   CoordSys=GLOBAL   Dir=Gravity   UnifLoad=1.00034158457019
   Area=232   LoadPat=LL   CoordSys=GLOBAL   Dir=Gravity   UnifLoad=1.00034158457019
   Area=233   LoadPat=LL   CoordSys=GLOBAL   Dir=Gravity   UnifLoad=1.00034158457019
   Area=234   LoadPat=LL   CoordSys=GLOBAL   Dir=Gravity   UnifLoad=1.00034158457019
   Area=235   LoadPat=LL   CoordSys=GLOBAL   Dir=Gravity   UnifLoad=1.00034158457019
   Area=236   LoadPat=LL   CoordSys=GLOBAL   Dir=Gravity   UnifLoad=1.00034158457019
   Area=237   LoadPat=LL   CoordSys=GLOBAL   Dir=Gravity   UnifLoad=1.00034158457019
   Area=238   LoadPat=LL   CoordSys=GLOBAL   Dir=Gravity   UnifLoad=1.00034158457019
   Area=239   LoadPat=LL   CoordSys=GLOBAL   Dir=Gravity   UnifLoad=1.00034158457019
   Area=240   LoadPat=LL   CoordSys=GLOBAL   Dir=Gravity   UnifLoad=1.00034158457019
   Area=241   LoadPat=LL   CoordSys=GLOBAL   Dir=Gravity   UnifLoad=1.00034158457019
   Area=242   LoadPat=LL   CoordSys=GLOBAL   Dir=Gravity   UnifLoad=1.00034158457019
   Area=243   LoadPat=LL   CoordSys=GLOBAL   Dir=Gravity   UnifLoad=1.00034158457019
   Area=244   LoadPat=LL   CoordSys=GLOBAL   Dir=Gravity   UnifLoad=1.00034158457019
   Area=245   LoadPat=LL   CoordSys=GLOBAL   Dir=Gravity   UnifLoad=1.00034158457019
   Area=246   LoadPat=LL   CoordSys=GLOBAL   Dir=Gravity   UnifLoad=1.00034158457019
# ... 12 like lines cut
 
TABLE:  "AREA SECTION ASSIGNMENTS"
   Area=227   Section=Deck   MatProp=Default
   Area=228   Section=Deck   MatProp=Default
   Area=229   Section=Deck   MatProp=Default
   Area=230   Section=Deck   MatProp=Default
   Area=231   Section=Deck   MatProp=Default
   Area=232   Section=Deck   MatProp=Default
   Area=233   Section=Deck   MatProp=Default
   Area=234   Section=Deck   MatProp=Default
   Area=235   Section=Deck   MatProp=Default
   Area=236   Section=Deck   MatProp=Default
   Area=237   Section=Deck   MatProp=Default
   Area=238   Section=Deck   MatProp=Default
   Area=239   Section=Deck   MatProp=Default
   Area=240   Section=Deck   MatProp=Default
   Area=241   Section=Deck   MatProp=Default
   Area=242   Section=Deck   MatProp=Default
   Area=243   Section=Deck   MatProp=Default
   Area=244   Section=Deck   MatProp=Default
   Area=245   Section=Deck   MatProp=Default
   Area=246   Section=Deck   MatProp=Default
# ... 12 like lines cut
 
TABLE:  "AREA SECTION PROPERTIES"
   Section=Deck   Material=BTCT   MatAngle=0   AreaType=Shell   Type=Shell-Thin   DrillDOF=Yes   Thickness=0.3   BendThick=0.3   Color=Green   F11Mod=1   F22Mod=1   F12Mod=1   M11Mod=1   M22Mod=1   M12Mod=1   V13Mod=1   V23Mod=1   MMod=1 _
        WMod=1   Notes="Added 24-Feb-23 16:56:47"
 
TABLE:  "AREA SECTION PROPERTY DESIGN PARAMETERS"
   Section=Deck   RebarMat=None   RebarOpt=Default
 
TABLE:  "AREA SECTION PROPERTY - TIME DEPENDENT"
   Section=Deck   TypeSize=User   AutoSFSize=1   UserValSize=0.1
 
TABLE:  "AUTO COMBINATION OPTION DATA 01 - GENERAL"
   DesignType=Concrete   AutoGen=Yes
 
TABLE:  "AUTO COMBINATION OPTION DATA 02 - USER DATA"
   DesignType=Concrete   LSType=Strength   LCName=DEAD
   DesignType=Concrete   LSType=Strength   LCName=LL
 
TABLE:  "AUTO WAVE 3 - WAVE CHARACTERISTICS - GENERAL"
   WaveChar=Default   WaveType="From Theory"   KinFactor=1   SWaterDepth=45   WaveHeight=18   WavePeriod=12   WaveTheory=Linear
 
TABLE:  "CASE - MODAL 1 - GENERAL"
   Case=MODAL   ModeType=Eigen   MaxNumModes=12   MinNumModes=1   EigenShift=0   EigenCutoff=0   EigenTol=1E-09   AutoShift=Yes
 
TABLE:  "CASE - STATIC 1 - LOAD ASSIGNMENTS"
   Case=DEAD   LoadType="Load pattern"   LoadName=DEAD   LoadSF=1
   Case=LL   LoadType="Load pattern"   LoadName=LL   LoadSF=1
 
TABLE:  "COMBINATION DEFINITIONS"
   ComboName=COMB1   ComboType="Linear Add"   AutoDesign=No   CaseName=DEAD   ScaleFactor=1   SteelDesign=None   ConcDesign=Strength   AlumDesign=None   ColdDesign=None
   ComboName=COMB2   ComboType="Linear Add"   AutoDesign=No   CaseName=DEAD   ScaleFactor=1   SteelDesign=None   ConcDesign=Strength   AlumDesign=None   ColdDesign=None
   ComboName=COMB2   CaseName=LL   ScaleFactor=1
   ComboName=BAO   ComboType=Envelope   AutoDesign=No   CaseName=COMB1   ScaleFactor=1   SteelDesign=None   ConcDesign=Strength   AlumDesign=None   ColdDesign=None
   ComboName=BAO   CaseName=COMB2   ScaleFactor=1
   ComboName=DCON1   ComboType="Linear Add"   AutoDesign=Yes   CaseName=DEAD   ScaleFactor=1.4   SteelDesign=None   ConcDesign=Strength   AlumDesign=None   ColdDesign=None   GUID=bb4fff9a-98b5-44d1-9fde-34d92700a8e9   Notes="Dead Only; Strength"
   ComboName=DCON2   ComboType="Linear Add"   AutoDesign=Yes   CaseName=DEAD   ScaleFactor=1.25   SteelDesign=None   ConcDesign=Strength   AlumDesign=None   ColdDesign=None   GUID=505bcda7-6fac-4dd0-b03e-c591d1ffc6ce   Notes="Dead + Live; Strength"
   ComboName=DCON2   CaseName=LL   ScaleFactor=1.5
 
TABLE:  "CONNECTIVITY - AREA"
   Area=227   Joint1=753   Joint2=698   Joint3=664   Joint4=663   GUID=67059d9b-7a6d-49c1-8f75-caace6d9b637
   Area=228   Joint1=663   Joint2=664   Joint3=666   Joint4=665   GUID=bb346d6e-81a6-44e5-817b-ee09c2023f22
   Area=229   Joint1=665   Joint2=666   Joint3=668   Joint4=667   GUID=a3e90338-3764-41cf-85f9-02affb598d3c
   Area=230   Joint1=667   Joint2=668   Joint3=670   Joint4=669   GUID=333eb82a-1553-4715-9608-3ff036416f1b
   Area=231   Joint1=669   Joint2=670   Joint3=672   Joint4=671   GUID=9a00c0a6-97bd-40cd-a862-533606793ede
   Area=232   Joint1=671   Joint2=672   Joint3=674   Joint4=673   GUID=1234df1f-5049-4b33-b6b6-2badc349d0b8
   Area=233   Joint1=673   Joint2=674   Joint3=676   Joint4=675   GUID=d194366e-66a5-402e-bbfa-2e24e0e2cc3b
   Area=234   Joint1=675   Joint2=676   Joint3=701   Joint4=754   GUID=1ccfc12a-379a-4c18-a26e-6854824431b6
   Area=235   Joint1=698   Joint2=699   Joint3=677   Joint4=664   GUID=558c6a96-5c0d-46bd-931f-7c97d6ad960a
   Area=236   Joint1=664   Joint2=677   Joint3=678   Joint4=666   GUID=fa0a515d-37f0-4107-bd5f-e4ec9d3453e9
   Area=237   Joint1=666   Joint2=678   Joint3=679   Joint4=668   GUID=5fdca054-fbeb-465b-a8c8-bf263cb05566
   Area=238   Joint1=668   Joint2=679   Joint3=680   Joint4=670   GUID=5ec0efef-775f-4a68-898e-8a57e9c2e139
   Area=239   Joint1=670   Joint2=680   Joint3=681   Joint4=672   GUID=23a5c6d2-c44e-4446-9d12-4f3c9fb926c3
   Area=240   Joint1=672   Joint2=681   Joint3=682   Joint4=674   GUID=b15f489c-7a27-40fd-847c-572e5818a4cc
   Area=241   Joint1=674   Joint2=682   Joint3=683   Joint4=676   GUID=6dcca032-1b27-427d-ae21-67ec75bc367a
   Area=242   Joint1=676   Joint2=683   Joint3=702   Joint4=701   GUID=5221ca9d-a8f5-4fc6-bca4-089237f2d83b
   Area=243   Joint1=699   Joint2=700   Joint3=684   Joint4=677   GUID=c9cc651d-64e6-4a5d-b678-36abf8bac7d0
   Area=244   Joint1=677   Joint2=684   Joint3=685   Joint4=678   GUID=455c2105-7eac-477e-a0f0-e06a99ebaa3a
   Area=245   Joint1=678   Joint2=685   Joint3=686   Joint4=679   GUID=431cb854-f1df-431b-af13-0511e875fded
   Area=246   Joint1=679   Joint2=686   Joint3=687   Joint4=680   GUID=ae9d95d6-28fa-47e5-ae0a-9f1d62984194
   Area=247   Joint1=680   Joint2=687   Joint3=688   Joint4=681   GUID=a8124f03-d113-4073-bd0c-d1f4de6340fb
   Area=248   Joint1=681   Joint2=688   Joint3=689   Joint4=682   GUID=5ccab651-2408-4fa1-9b69-15c3083ea9e9
   Area=249   Joint1=682   Joint2=689   Joint3=690   Joint4=683   GUID=56b71fd8-130d-4881-a19e-58df27d1924e
   Area=250   Joint1=683   Joint2=690   Joint3=703   Joint4=702   GUID=49550fd5-da5a-4300-843b-27f64ee8972d
   Area=251   Joint1=700   Joint2=755   Joint3=691   Joint4=684   GUID=d7d89233-a67c-41f5-b867-3ad4eee44ae6
   Area=252   Joint1=684   Joint2=691   Joint3=692   Joint4=685   GUID=9d207557-cabb-4743-966f-9a891b21af2f
   Area=253   Joint1=685   Joint2=692   Joint3=693   Joint4=686   GUID=34ce8890-2de9-4d5a-90ca-9762ca1b3bf6
   Area=254   Joint1=686   Joint2=693   Joint3=694   Joint4=687   GUID=75c7d68e-f8e8-4f9a-8449-9ec4e361e41f
   Area=255   Joint1=687   Joint2=694   Joint3=695   Joint4=688   GUID=df1eb1b8-90a5-407f-ad9d-956b2768b63b
   Area=256   Joint1=688   Joint2=695   Joint3=696   Joint4=689   GUID=c1868315-bf65-47ff-8eb7-8a867de805c3
   Area=257   Joint1=689   Joint2=696   Joint3=697   Joint4=690   GUID=1c8c28f0-0605-4f0d-b5ef-f08de37fde32
   Area=258   Joint1=690   Joint2=697   Joint3=756   Joint4=703   GUID=d771e720-c385-4a8b-8c80-c40da39fa532
 
TABLE:  "CONNECTIVITY - FRAME"
   Frame=756   JointI=663   JointJ=664   IsCurved=No   GUID=9f18e523-8145-47ac-bfba-b7b2419ef8db
   Frame=757   JointI=665   JointJ=666   IsCurved=No   GUID=b3ba2736-05b1-4daa-8509-cb3918158a80
   Frame=758   JointI=667   JointJ=668   IsCurved=No   GUID=a726cc37-c912-4729-8441-00f548452be7
   Frame=759   JointI=669   JointJ=670   IsCurved=No   GUID=173a7d4a-386c-47d4-a3dc-84eea11916e1
   Frame=760   JointI=671   JointJ=672   IsCurved=No   GUID=c4021d50-1552-4324-8274-3a02747ba4ee
   Frame=761   JointI=673   JointJ=674   IsCurved=No   GUID=caaf9171-8242-4037-8f57-7a930ae92f47
   Frame=762   JointI=675   JointJ=676   IsCurved=No   GUID=4123a863-13f6-4df5-b2f6-d9bbe5f33328
   Frame=763   JointI=664   JointJ=677   IsCurved=No   GUID=cf83e3a4-d88e-441f-a4e3-88b15520fa7c
   Frame=764   JointI=666   JointJ=678   IsCurved=No   GUID=7621ab89-601b-499c-8680-1ef302262002
   Frame=765   JointI=668   JointJ=679   IsCurved=No   GUID=58231225-e7c5-45a6-b178-f2a591d63a87
   Frame=766   JointI=670   JointJ=680   IsCurved=No   GUID=cf2e3fd3-b360-413e-8f0a-5c28a7e7bfec
   Frame=767   JointI=672   JointJ=681   IsCurved=No   GUID=0cb7d49a-baa2-462b-a194-d5b12c26613c
   Frame=768   JointI=674   JointJ=682   IsCurved=No   GUID=8fd0b6e8-87e0-4ef3-b386-b5ec8147d0ca
   Frame=769   JointI=676   JointJ=683   IsCurved=No   GUID=12061dfc-036b-42ee-bcbf-032f09bf0386
   Frame=770   JointI=677   JointJ=684   IsCurved=No   GUID=ff7b8b5d-fda2-41e8-900e-c1ede1790ffb
   Frame=771   JointI=678   JointJ=685   IsCurved=No   GUID=62e71579-0be7-49b5-ac3d-d23d07f4f26c
   Frame=772   JointI=679   JointJ=686   IsCurved=No   GUID=635a9717-2f7e-49ff-989e-4a0be5a2aa89
   Frame=773   JointI=680   JointJ=687   IsCurved=No   GUID=1df24650-7edd-4444-ad02-ec9108addf69
   Frame=774   JointI=681   JointJ=688   IsCurved=No   GUID=24df1f59-a776-46fe-8bfe-46b269cbb0b8
   Frame=775   JointI=682   JointJ=689   IsCurved=No   GUID=ea35e33e-88b1-4ce7-9729-7f3805eb9372
   Frame=776   JointI=683   JointJ=690   IsCurved=No   GUID=79d6c670-72de-4540-b2b2-43173ebe83c2
   Frame=777   JointI=684   JointJ=691   IsCurved=No   GUID=88dbf913-fe8c-4846-a15f-19d1a7aaa55e
   Frame=778   JointI=685   JointJ=692   IsCurved=No   GUID=2979c2bb-141d-4b8e-b6bc-a9557cc6bb64
   Frame=779   JointI=686   JointJ=693   IsCurved=No   GUID=ace84947-bffa-440c-9382-1408fb9bacbe
   Frame=780   JointI=687   JointJ=694   IsCurved=No   GUID=82418262-a16b-433c-8580-fe4629327d30
   Frame=781   JointI=688   JointJ=695   IsCurved=No   GUID=31d1479d-4289-4057-b4c9-cc4709d8b901
   Frame=782   JointI=689   JointJ=696   IsCurved=No   GUID=953bd6c8-33e7-413a-9d29-a4242ce7d9ba
   Frame=783   JointI=690   JointJ=697   IsCurved=No   GUID=bacaf6e8-4f88-4fdc-820b-226b9435396a
   Frame=784   JointI=698   JointJ=664   IsCurved=No   GUID=accb85c7-0281-4566-894e-13302b540a17
   Frame=785   JointI=699   JointJ=677   IsCurved=No   GUID=9ca9b8e8-9214-4658-8593-993d22856190
   Frame=786   JointI=700   JointJ=684   IsCurved=No   GUID=992a11f4-37c9-46a5-a19a-794bcbb8c5ec
   Frame=787   JointI=664   JointJ=666   IsCurved=No   GUID=f976cf1d-146a-4aad-8155-9f2900f3ee38
   Frame=788   JointI=677   JointJ=678   IsCurved=No   GUID=42fcbcf4-9889-4912-ab74-72d0df2a8d13
   Frame=789   JointI=684   JointJ=685   IsCurved=No   GUID=e971c1a8-d149-412d-b410-f0a290896c0c
   Frame=790   JointI=666   JointJ=668   IsCurved=No   GUID=5cc58710-2f0c-4105-8182-9e5e9e01ddbc
   Frame=791   JointI=678   JointJ=679   IsCurved=No   GUID=5e85b741-26d6-4a3e-98cc-dfa6c6971dbe
   Frame=792   JointI=685   JointJ=686   IsCurved=No   GUID=9d1d6f57-9cea-490b-aa9f-422b59a8cf45
   Frame=793   JointI=668   JointJ=670   IsCurved=No   GUID=25fdeeef-a000-495a-92ea-75c8bfe109cf
   Frame=794   JointI=679   JointJ=680   IsCurved=No   GUID=3404015c-3a22-4e61-8205-a7ab20fd2e2c
   Frame=795   JointI=686   JointJ=687   IsCurved=No   GUID=718abd07-3b1c-4dce-b7df-09b1dd4ebc18
   Frame=796   JointI=670   JointJ=672   IsCurved=No   GUID=f8273107-99a8-4211-8ce5-3eb626f51144
   Frame=797   JointI=680   JointJ=681   IsCurved=No   GUID=d437e87c-983d-47fc-bea1-64b05292d5ac
   Frame=798   JointI=687   JointJ=688   IsCurved=No   GUID=64e811ec-2883-47f4-b4c2-468fc4bed7f6
   Frame=799   JointI=672   JointJ=674   IsCurved=No   GUID=fe249aaf-e723-4536-b048-896a7d532f16
   Frame=800   JointI=681   JointJ=682   IsCurved=No   GUID=a62931a1-a4a5-4742-943d-d75b0401eba7
   Frame=801   JointI=688   JointJ=689   IsCurved=No   GUID=a3c5cc9d-cd48-40a8-9c54-eb3f098cb678
   Frame=802   JointI=674   JointJ=676   IsCurved=No   GUID=72e0f55d-cb4a-471e-a3c6-e686aa9eca25
   Frame=803   JointI=682   JointJ=683   IsCurved=No   GUID=9829aa8a-80f7-4f1f-be97-e535e420a521
   Frame=804   JointI=689   JointJ=690   IsCurved=No   GUID=1133f2a6-15da-4454-81bc-e06aabb41668
   Frame=805   JointI=676   JointJ=701   IsCurved=No   GUID=d95318a1-bcec-4d1f-b71f-a90f14584c12
   Frame=806   JointI=683   JointJ=702   IsCurved=No   GUID=b4f8c881-32bf-488c-8a52-d4afeffbe7ba
   Frame=807   JointI=690   JointJ=703   IsCurved=No   GUID=25ec6957-1db4-4789-a113-539b3272bdd1
   Frame=808   JointI=664   JointJ=704   IsCurved=No   GUID=7232ad31-ffd7-43e6-8a8d-5a4110134e49
   Frame=809   JointI=704   JointJ=705   IsCurved=No   GUID=f4a60583-eb03-49ed-ab89-47b5d3dc728a
   Frame=810   JointI=705   JointJ=706   IsCurved=No   GUID=d0d87a25-cde4-4223-9d98-9be9ba2b5907
   Frame=811   JointI=666   JointJ=707   IsCurved=No   GUID=cbc0cf8d-fb7a-4a8b-be4d-9893b62a336b
   Frame=812   JointI=707   JointJ=708   IsCurved=No   GUID=a38416ac-0b90-40d1-a79e-5a8c4f48bc1b
   Frame=813   JointI=708   JointJ=709   IsCurved=No   GUID=76a1f3b5-fbac-458e-849f-e77fbbda0724
   Frame=814   JointI=668   JointJ=710   IsCurved=No   GUID=216d533f-68c5-4517-9bf4-a55278846917
   Frame=815   JointI=710   JointJ=711   IsCurved=No   GUID=e36ef03a-108a-47a9-b523-2c2b58e36145
   Frame=816   JointI=711   JointJ=712   IsCurved=No   GUID=a89a7f9b-99fc-498e-aa8a-75cdf13aa082
   Frame=817   JointI=670   JointJ=713   IsCurved=No   GUID=b1e13d0a-de25-42e1-acb9-2138d0e64e75
   Frame=818   JointI=713   JointJ=714   IsCurved=No   GUID=1ad2f1c1-fe53-4867-83cf-8ce0f3a7a2ee
   Frame=819   JointI=714   JointJ=715   IsCurved=No   GUID=1c3569a0-1d4a-4c4c-9fab-7e5324ab0694
   Frame=820   JointI=672   JointJ=716   IsCurved=No   GUID=3f3fd098-5917-4c91-b7d3-7555629e1b39
   Frame=821   JointI=716   JointJ=717   IsCurved=No   GUID=8931378c-3503-4e72-8e91-db53274fa4e4
   Frame=822   JointI=717   JointJ=718   IsCurved=No   GUID=1e4a68e9-863b-4e91-91c4-84b3fd3b9336
   Frame=823   JointI=674   JointJ=719   IsCurved=No   GUID=50febc79-8080-46fa-b3dc-fa41317d4a17
   Frame=824   JointI=719   JointJ=720   IsCurved=No   GUID=1994fb75-9627-45e5-8253-e2f572eade3b
   Frame=825   JointI=720   JointJ=721   IsCurved=No   GUID=7386b6eb-ade0-49df-8d2f-fd14c6b916b0
   Frame=826   JointI=676   JointJ=722   IsCurved=No   GUID=ca8d9aed-1804-4c66-ae2a-055dcbea7472
   Frame=827   JointI=722   JointJ=723   IsCurved=No   GUID=06a64a7e-0c5d-418a-8bd0-79591ee3f467
   Frame=828   JointI=723   JointJ=724   IsCurved=No   GUID=82190462-2b1d-42b8-8067-3e3b5d6f877a
   Frame=829   JointI=677   JointJ=725   IsCurved=No   GUID=829e3b78-9aca-4ef9-9d9d-418f3fedffe1
   Frame=830   JointI=725   JointJ=726   IsCurved=No   GUID=14848af1-7e7c-40be-8928-ac6c4ee3999f
   Frame=831   JointI=678   JointJ=727   IsCurved=No   GUID=cdc9f6ec-b4ce-48ad-bb99-cda0d304e220
   Frame=832   JointI=727   JointJ=728   IsCurved=No   GUID=c0b24729-b256-4aa0-9cb5-b5cafc66b86f
   Frame=833   JointI=679   JointJ=729   IsCurved=No   GUID=f7027e68-d09c-4e13-9ecb-32799a4ab773
   Frame=834   JointI=729   JointJ=730   IsCurved=No   GUID=f0802cd1-4d16-4148-9ce0-259752c88b49
   Frame=835   JointI=680   JointJ=731   IsCurved=No   GUID=b0963023-aa8d-4b62-a29a-49bfcbc7a7af
   Frame=836   JointI=731   JointJ=732   IsCurved=No   GUID=a1a9562f-a404-404f-9286-f24f96a9ced5
   Frame=837   JointI=681   JointJ=733   IsCurved=No   GUID=4894fa95-dc1d-48e1-9e74-2568f609af8d
   Frame=838   JointI=733   JointJ=734   IsCurved=No   GUID=0cb56d2f-1ba0-4a90-aed5-4da866e3c2a6
   Frame=839   JointI=682   JointJ=735   IsCurved=No   GUID=b6d7bf0c-cf85-4ded-83db-0d9b1a110b55
   Frame=840   JointI=735   JointJ=736   IsCurved=No   GUID=ec86b820-75b1-4cc1-8043-78be799223af
   Frame=841   JointI=683   JointJ=737   IsCurved=No   GUID=6da91552-5344-438e-9101-bbe280a705e3
   Frame=842   JointI=737   JointJ=738   IsCurved=No   GUID=80d08256-ac5a-4826-9fdd-ec7fe11e31d3
   Frame=843   JointI=684   JointJ=739   IsCurved=No   GUID=37e597d9-55b7-427f-b79d-cd32de12649d
   Frame=844   JointI=739   JointJ=740   IsCurved=No   GUID=f45bdf39-dc32-40a8-a160-4567943d9a49
   Frame=845   JointI=685   JointJ=741   IsCurved=No   GUID=60500093-104d-41ce-8a08-30c7a7c5a315
   Frame=846   JointI=741   JointJ=742   IsCurved=No   GUID=97c02aaa-6dc1-4a10-ad4d-55b08faeb40b
   Frame=847   JointI=686   JointJ=743   IsCurved=No   GUID=7c5f80cd-c69f-4463-acf8-2816ce5832aa
   Frame=848   JointI=743   JointJ=744   IsCurved=No   GUID=2738eedb-7fcb-4c8c-a0cc-dcd8b51fba1b
   Frame=849   JointI=687   JointJ=745   IsCurved=No   GUID=ae60ff0a-fdc6-4344-80e2-de2e88ac4cda
   Frame=850   JointI=745   JointJ=746   IsCurved=No   GUID=fbdfc5e5-0114-426e-b17f-3c4aa61ede97
   Frame=851   JointI=688   JointJ=747   IsCurved=No   GUID=82a6d091-1867-4248-b767-a6e5bb79bf1a
   Frame=852   JointI=747   JointJ=748   IsCurved=No   GUID=946ec3ef-a0dc-4376-a067-db3cd2917d62
   Frame=853   JointI=689   JointJ=749   IsCurved=No   GUID=18cfc829-5d0f-43fa-b3b4-15af1c9b1808
   Frame=854   JointI=749   JointJ=750   IsCurved=No   GUID=8244b57e-24dc-4a2f-b076-688ebe28600a
   Frame=855   JointI=690   JointJ=751   IsCurved=No   GUID=b245eefb-cfc6-46b0-a7d8-c4d359cd86e1
   Frame=856   JointI=751   JointJ=752   IsCurved=No   GUID=ec3c8e0e-3c6b-442f-baab-81a52f7b35eb
   Frame=857   JointI=704   JointJ=707   IsCurved=No   GUID=d6163e8a-5d77-4f62-bf12-e3d6890eac84
   Frame=858   JointI=707   JointJ=710   IsCurved=No   GUID=916dd2b1-3d96-45d9-909b-08d7e86896a5
   Frame=859   JointI=710   JointJ=713   IsCurved=No   GUID=4a008d3d-4dc5-40bf-b729-a6c006917350
   Frame=860   JointI=713   JointJ=716   IsCurved=No   GUID=cbdc9a81-977d-441c-8cf6-fe459efcb456
   Frame=861   JointI=716   JointJ=719   IsCurved=No   GUID=4258e46d-bf46-414c-be9a-79f1f389b2c8
   Frame=862   JointI=719   JointJ=722   IsCurved=No   GUID=48f67415-d401-4c67-94fd-aec07d891e98
 
TABLE:  "COORDINATE SYSTEMS"
   Name=GLOBAL   Type=Cartesian   X=0   Y=0   Z=0   AboutZ=0   AboutY=0   AboutX=0
 
TABLE:  "DATABASE DOCUMENTATION"
 
TABLE:  "DATABASE FORMAT TYPES"
   UnitsCurr=Yes   OverrideE=No
 
TABLE:  "FRAME AUTO MESH ASSIGNMENTS"
   Frame=756   AutoMesh=Yes   AtJoints=Yes   AtFrames=No   NumSegments=0   MaxLength=0   MaxDegrees=0
   Frame=757   AutoMesh=Yes   AtJoints=Yes   AtFrames=No   NumSegments=0   MaxLength=0   MaxDegrees=0
   Frame=758   AutoMesh=Yes   AtJoints=Yes   AtFrames=No   NumSegments=0   MaxLength=0   MaxDegrees=0
   Frame=759   AutoMesh=Yes   AtJoints=Yes   AtFrames=No   NumSegments=0   MaxLength=0   MaxDegrees=0
   Frame=760   AutoMesh=Yes   AtJoints=Yes   AtFrames=No   NumSegments=0   MaxLength=0   MaxDegrees=0
   Frame=761   AutoMesh=Yes   AtJoints=Yes   AtFrames=No   NumSegments=0   MaxLength=0   MaxDegrees=0
   Frame=762   AutoMesh=Yes   AtJoints=Yes   AtFrames=No   NumSegments=0   MaxLength=0   MaxDegrees=0
   Frame=763   AutoMesh=Yes   AtJoints=Yes   AtFrames=No   NumSegments=0   MaxLength=0   MaxDegrees=0
   Frame=764   AutoMesh=Yes   AtJoints=Yes   AtFrames=No   NumSegments=0   MaxLength=0   MaxDegrees=0
   Frame=765   AutoMesh=Yes   AtJoints=Yes   AtFrames=No   NumSegments=0   MaxLength=0   MaxDegrees=0
   Frame=766   AutoMesh=Yes   AtJoints=Yes   AtFrames=No   NumSegments=0   MaxLength=0   MaxDegrees=0
   Frame=767   AutoMesh=Yes   AtJoints=Yes   AtFrames=No   NumSegments=0   MaxLength=0   MaxDegrees=0
   Frame=768   AutoMesh=Yes   AtJoints=Yes   AtFrames=No   NumSegments=0   MaxLength=0   MaxDegrees=0
   Frame=769   AutoMesh=Yes   AtJoints=Yes   AtFrames=No   NumSegments=0   MaxLength=0   MaxDegrees=0
   Frame=770   AutoMesh=Yes   AtJoints=Yes   AtFrames=No   NumSegments=0   MaxLength=0   MaxDegrees=0
   Frame=771   AutoMesh=Yes   AtJoints=Yes   AtFrames=No   NumSegments=0   MaxLength=0   MaxDegrees=0
   Frame=772   AutoMesh=Yes   AtJoints=Yes   AtFrames=No   NumSegments=0   MaxLength=0   MaxDegrees=0
   Frame=773   AutoMesh=Yes   AtJoints=Yes   AtFrames=No   NumSegments=0   MaxLength=0   MaxDegrees=0
   Frame=774   AutoMesh=Yes   AtJoints=Yes   AtFrames=No   NumSegments=0   MaxLength=0   MaxDegrees=0
   Frame=775   AutoMesh=Yes   AtJoints=Yes   AtFrames=No   NumSegments=0   MaxLength=0   MaxDegrees=0
# ... 87 like lines cut
 
TABLE:  "FRAME DESIGN PROCEDURES"
   Frame=756   DesignProc="From Material"
   Frame=757   DesignProc="From Material"
   Frame=758   DesignProc="From Material"
   Frame=759   DesignProc="From Material"
   Frame=760   DesignProc="From Material"
   Frame=761   DesignProc="From Material"
   Frame=762   DesignProc="From Material"
   Frame=763   DesignProc="From Material"
   Frame=764   DesignProc="From Material"
   Frame=765   DesignProc="From Material"
   Frame=766   DesignProc="From Material"
   Frame=767   DesignProc="From Material"
   Frame=768   DesignProc="From Material"
   Frame=769   DesignProc="From Material"
   Frame=770   DesignProc="From Material"
   Frame=771   DesignProc="From Material"
   Frame=772   DesignProc="From Material"
   Frame=773   DesignProc="From Material"
   Frame=774   DesignProc="From Material"
   Frame=775   DesignProc="From Material"
# ... 33 like lines cut
   Frame=809   DesignProc="No Design"
   Frame=810   DesignProc="No Design"
   Frame=811   DesignProc="From Material"
   Frame=812   DesignProc="No Design"
   Frame=813   DesignProc="No Design"
   Frame=814   DesignProc="From Material"
   Frame=815   DesignProc="No Design"
   Frame=816   DesignProc="No Design"
   Frame=817   DesignProc="From Material"
   Frame=818   DesignProc="No Design"
   Frame=819   DesignProc="No Design"
   Frame=820   DesignProc="From Material"
   Frame=821   DesignProc="No Design"
   Frame=822   DesignProc="No Design"
   Frame=823   DesignProc="From Material"
   Frame=824   DesignProc="No Design"
   Frame=825   DesignProc="No Design"
   Frame=826   DesignProc="From Material"
   Frame=827   DesignProc="No Design"
   Frame=828   DesignProc="No Design"
   Frame=829   DesignProc="No Design"
   Frame=830   DesignProc="No Design"
   Frame=831   DesignProc="No Design"
   Frame=832   DesignProc="No Design"
   Frame=833   DesignProc="No Design"
   Frame=834   DesignProc="No Design"
   Frame=835   DesignProc="No Design"
   Frame=836   DesignProc="No Design"
   Frame=837   DesignProc="No Design"
   Frame=838   DesignProc="No Design"
   Frame=839   DesignProc="No Design"
   Frame=840   DesignProc="No Design"
   Frame=841   DesignProc="No Design"
   Frame=842   DesignProc="No Design"
   Frame=843   DesignProc="No Design"
   Frame=844   DesignProc="No Design"
   Frame=845   DesignProc="No Design"
   Frame=846   DesignProc="No Design"
# ... 10 like lines cut
   Frame=857   DesignProc="From Material"
   Frame=858   DesignProc="From Material"
   Frame=859   DesignProc="From Material"
   Frame=860   DesignProc="From Material"
   Frame=861   DesignProc="From Material"
   Frame=862   DesignProc="From Material"
 
TABLE:  "FRAME LOAD TRANSFER OPTIONS"
   Frame=756   Transfer=Yes
   Frame=757   Transfer=Yes
   Frame=758   Transfer=Yes
   Frame=759   Transfer=Yes
   Frame=760   Transfer=Yes
   Frame=761   Transfer=Yes
   Frame=762   Transfer=Yes
   Frame=763   Transfer=Yes
   Frame=764   Transfer=Yes
   Frame=765   Transfer=Yes
   Frame=766   Transfer=Yes
   Frame=767   Transfer=Yes
   Frame=768   Transfer=Yes
   Frame=769   Transfer=Yes
   Frame=770   Transfer=Yes
   Frame=771   Transfer=Yes
   Frame=772   Transfer=Yes
   Frame=773   Transfer=Yes
   Frame=774   Transfer=Yes
   Frame=775   Transfer=Yes
# ... 87 like lines cut
 
TABLE:  "FRAME LOCAL AXES ASSIGNMENTS 1 - TYPICAL"
   Frame=808   Angle=90
   Frame=811   Angle=90
   Frame=814   Angle=90
   Frame=817   Angle=90
   Frame=820   Angle=90
   Frame=823   Angle=90
   Frame=826   Angle=90
 
TABLE:  "FRAME OUTPUT STATION ASSIGNMENTS"
   Frame=756   StationType=MaxStaSpcg   MaxStaSpcg=0.5   AddAtElmInt=Yes   AddAtPtLoad=Yes
   Frame=757   StationType=MaxStaSpcg   MaxStaSpcg=0.5   AddAtElmInt=Yes   AddAtPtLoad=Yes
   Frame=758   StationType=MaxStaSpcg   MaxStaSpcg=0.5   AddAtElmInt=Yes   AddAtPtLoad=Yes
   Frame=759   StationType=MaxStaSpcg   MaxStaSpcg=0.5   AddAtElmInt=Yes   AddAtPtLoad=Yes
   Frame=760   StationType=MaxStaSpcg   MaxStaSpcg=0.5   AddAtElmInt=Yes   AddAtPtLoad=Yes
   Frame=761   StationType=MaxStaSpcg   MaxStaSpcg=0.5   AddAtElmInt=Yes   AddAtPtLoad=Yes
   Frame=762   StationType=MaxStaSpcg   MaxStaSpcg=0.5   AddAtElmInt=Yes   AddAtPtLoad=Yes
   Frame=763   StationType=MaxStaSpcg   MaxStaSpcg=0.5   AddAtElmInt=Yes   AddAtPtLoad=Yes
   Frame=764   StationType=MaxStaSpcg   MaxStaSpcg=0.5   AddAtElmInt=Yes   AddAtPtLoad=Yes
   Frame=765   StationType=MaxStaSpcg   MaxStaSpcg=0.5   AddAtElmInt=Yes   AddAtPtLoad=Yes
   Frame=766   StationType=MaxStaSpcg   MaxStaSpcg=0.5   AddAtElmInt=Yes   AddAtPtLoad=Yes
   Frame=767   StationType=MaxStaSpcg   MaxStaSpcg=0.5   AddAtElmInt=Yes   AddAtPtLoad=Yes
   Frame=768   StationType=MaxStaSpcg   MaxStaSpcg=0.5   AddAtElmInt=Yes   AddAtPtLoad=Yes
   Frame=769   StationType=MaxStaSpcg   MaxStaSpcg=0.5   AddAtElmInt=Yes   AddAtPtLoad=Yes
   Frame=770   StationType=MaxStaSpcg   MaxStaSpcg=0.5   AddAtElmInt=Yes   AddAtPtLoad=Yes
   Frame=771   StationType=MaxStaSpcg   MaxStaSpcg=0.5   AddAtElmInt=Yes   AddAtPtLoad=Yes
   Frame=772   StationType=MaxStaSpcg   MaxStaSpcg=0.5   AddAtElmInt=Yes   AddAtPtLoad=Yes
   Frame=773   StationType=MaxStaSpcg   MaxStaSpcg=0.5   AddAtElmInt=Yes   AddAtPtLoad=Yes
   Frame=774   StationType=MaxStaSpcg   MaxStaSpcg=0.5   AddAtElmInt=Yes   AddAtPtLoad=Yes
   Frame=775   StationType=MaxStaSpcg   MaxStaSpcg=0.5   AddAtElmInt=Yes   AddAtPtLoad=Yes
# ... 32 like lines cut
   Frame=808   StationType=MinNumSta   MinNumSta=3   AddAtElmInt=Yes   AddAtPtLoad=Yes
   Frame=809   StationType=MinNumSta   MinNumSta=3   AddAtElmInt=Yes   AddAtPtLoad=Yes
   Frame=810   StationType=MinNumSta   MinNumSta=3   AddAtElmInt=Yes   AddAtPtLoad=Yes
   Frame=811   StationType=MinNumSta   MinNumSta=3   AddAtElmInt=Yes   AddAtPtLoad=Yes
   Frame=812   StationType=MinNumSta   MinNumSta=3   AddAtElmInt=Yes   AddAtPtLoad=Yes
   Frame=813   StationType=MinNumSta   MinNumSta=3   AddAtElmInt=Yes   AddAtPtLoad=Yes
   Frame=814   StationType=MinNumSta   MinNumSta=3   AddAtElmInt=Yes   AddAtPtLoad=Yes
   Frame=815   StationType=MinNumSta   MinNumSta=3   AddAtElmInt=Yes   AddAtPtLoad=Yes
   Frame=816   StationType=MinNumSta   MinNumSta=3   AddAtElmInt=Yes   AddAtPtLoad=Yes
   Frame=817   StationType=MinNumSta   MinNumSta=3   AddAtElmInt=Yes   AddAtPtLoad=Yes
   Frame=818   StationType=MinNumSta   MinNumSta=3   AddAtElmInt=Yes   AddAtPtLoad=Yes
   Frame=819   StationType=MinNumSta   MinNumSta=3   AddAtElmInt=Yes   AddAtPtLoad=Yes
   Frame=820   StationType=MinNumSta   MinNumSta=3   AddAtElmInt=Yes   AddAtPtLoad=Yes
   Frame=821   StationType=MinNumSta   MinNumSta=3   AddAtElmInt=Yes   AddAtPtLoad=Yes
   Frame=822   StationType=MinNumSta   MinNumSta=3   AddAtElmInt=Yes   AddAtPtLoad=Yes
   Frame=823   StationType=MinNumSta   MinNumSta=3   AddAtElmInt=Yes   AddAtPtLoad=Yes
   Frame=824   StationType=MinNumSta   MinNumSta=3   AddAtElmInt=Yes   AddAtPtLoad=Yes
   Frame=825   StationType=MinNumSta   MinNumSta=3   AddAtElmInt=Yes   AddAtPtLoad=Yes
   Frame=826   StationType=MinNumSta   MinNumSta=3   AddAtElmInt=Yes   AddAtPtLoad=Yes
   Frame=827   StationType=MinNumSta   MinNumSta=3   AddAtElmInt=Yes   AddAtPtLoad=Yes
# ... 29 like lines cut
   Frame=857   StationType=MaxStaSpcg   MaxStaSpcg=0.5   AddAtElmInt=Yes   AddAtPtLoad=Yes
   Frame=858   StationType=MaxStaSpcg   MaxStaSpcg=0.5   AddAtElmInt=Yes   AddAtPtLoad=Yes
   Frame=859   StationType=MaxStaSpcg   MaxStaSpcg=0.5   AddAtElmInt=Yes   AddAtPtLoad=Yes
   Frame=860   StationType=MaxStaSpcg   MaxStaSpcg=0.5   AddAtElmInt=Yes   AddAtPtLoad=Yes
   Frame=861   StationType=MaxStaSpcg   MaxStaSpcg=0.5   AddAtElmInt=Yes   AddAtPtLoad=Yes
   Frame=862   StationType=MaxStaSpcg   MaxStaSpcg=0.5   AddAtElmInt=Yes   AddAtPtLoad=Yes
 
TABLE:  "FRAME SECTION ASSIGNMENTS"
   Frame=756   AutoSelect=N.A.   AnalSect=TB   MatProp=Default
   Frame=757   AutoSelect=N.A.   AnalSect=TB   MatProp=Default
   Frame=758   AutoSelect=N.A.   AnalSect=TB   MatProp=Default
   Frame=759   AutoSelect=N.A.   AnalSect=TB   MatProp=Default
   Frame=760   AutoSelect=N.A.   AnalSect=TB   MatProp=Default
   Frame=761   AutoSelect=N.A.   AnalSect=TB   MatProp=Default
   Frame=762   AutoSelect=N.A.   AnalSect=TB   MatProp=Default
   Frame=763   AutoSelect=N.A.   AnalSect=TB   MatProp=Default
   Frame=764   AutoSelect=N.A.   AnalSect=TB   MatProp=Default
   Frame=765   AutoSelect=N.A.   AnalSect=TB   MatProp=Default
   Frame=766   AutoSelect=N.A.   AnalSect=TB   MatProp=Default
   Frame=767   AutoSelect=N.A.   AnalSect=TB   MatProp=Default
   Frame=768   AutoSelect=N.A.   AnalSect=TB   MatProp=Default
   Frame=769   AutoSelect=N.A.   AnalSect=TB   MatProp=Default
   Frame=770   AutoSelect=N.A.   AnalSect=TB   MatProp=Default
   Frame=771   AutoSelect=N.A.   AnalSect=TB   MatProp=Default
   Frame=772   AutoSelect=N.A.   AnalSect=TB   MatProp=Default
   Frame=773   AutoSelect=N.A.   AnalSect=TB   MatProp=Default
   Frame=774   AutoSelect=N.A.   AnalSect=TB   MatProp=Default
   Frame=775   AutoSelect=N.A.   AnalSect=TB   MatProp=Default
# ... 8 like lines cut
   Frame=784   AutoSelect=N.A.   AnalSect=LB   MatProp=Default
   Frame=785   AutoSelect=N.A.   AnalSect=LB   MatProp=Default
   Frame=786   AutoSelect=N.A.   AnalSect=LB   MatProp=Default
   Frame=787   AutoSelect=N.A.   AnalSect=LB   MatProp=Default
   Frame=788   AutoSelect=N.A.   AnalSect=LB   MatProp=Default
   Frame=789   AutoSelect=N.A.   AnalSect=LB   MatProp=Default
   Frame=790   AutoSelect=N.A.   AnalSect=LB   MatProp=Default
   Frame=791   AutoSelect=N.A.   AnalSect=LB   MatProp=Default
   Frame=792   AutoSelect=N.A.   AnalSect=LB   MatProp=Default
   Frame=793   AutoSelect=N.A.   AnalSect=LB   MatProp=Default
   Frame=794   AutoSelect=N.A.   AnalSect=LB   MatProp=Default
   Frame=795   AutoSelect=N.A.   AnalSect=LB   MatProp=Default
   Frame=796   AutoSelect=N.A.   AnalSect=LB   MatProp=Default
   Frame=797   AutoSelect=N.A.   AnalSect=LB   MatProp=Default
   Frame=798   AutoSelect=N.A.   AnalSect=LB   MatProp=Default
   Frame=799   AutoSelect=N.A.   AnalSect=LB   MatProp=Default
   Frame=800   AutoSelect=N.A.   AnalSect=LB   MatProp=Default
   Frame=801   AutoSelect=N.A.   AnalSect=LB   MatProp=Default
   Frame=802   AutoSelect=N.A.   AnalSect=LB   MatProp=Default
   Frame=803   AutoSelect=N.A.   AnalSect=LB   MatProp=Default
# ... 4 like lines cut
   Frame=808   AutoSelect=N.A.   AnalSect=EB   MatProp=Default
   Frame=809   AutoSelect=N.A.   AnalSect=Piles   MatProp=Default
   Frame=810   AutoSelect=N.A.   AnalSect=Piles   MatProp=Default
   Frame=811   AutoSelect=N.A.   AnalSect=EB   MatProp=Default
   Frame=812   AutoSelect=N.A.   AnalSect=Piles   MatProp=Default
   Frame=813   AutoSelect=N.A.   AnalSect=Piles   MatProp=Default
   Frame=814   AutoSelect=N.A.   AnalSect=EB   MatProp=Default
   Frame=815   AutoSelect=N.A.   AnalSect=Piles   MatProp=Default
   Frame=816   AutoSelect=N.A.   AnalSect=Piles   MatProp=Default
   Frame=817   AutoSelect=N.A.   AnalSect=EB   MatProp=Default
   Frame=818   AutoSelect=N.A.   AnalSect=Piles   MatProp=Default
   Frame=819   AutoSelect=N.A.   AnalSect=Piles   MatProp=Default
   Frame=820   AutoSelect=N.A.   AnalSect=EB   MatProp=Default
   Frame=821   AutoSelect=N.A.   AnalSect=Piles   MatProp=Default
   Frame=822   AutoSelect=N.A.   AnalSect=Piles   MatProp=Default
   Frame=823   AutoSelect=N.A.   AnalSect=EB   MatProp=Default
   Frame=824   AutoSelect=N.A.   AnalSect=Piles   MatProp=Default
   Frame=825   AutoSelect=N.A.   AnalSect=Piles   MatProp=Default
   Frame=826   AutoSelect=N.A.   AnalSect=EB   MatProp=Default
   Frame=827   AutoSelect=N.A.   AnalSect=Piles   MatProp=Default
   Frame=828   AutoSelect=N.A.   AnalSect=Piles   MatProp=Default
   Frame=829   AutoSelect=N.A.   AnalSect=Piles   MatProp=Default
   Frame=830   AutoSelect=N.A.   AnalSect=Piles   MatProp=Default
   Frame=831   AutoSelect=N.A.   AnalSect=Piles   MatProp=Default
   Frame=832   AutoSelect=N.A.   AnalSect=Piles   MatProp=Default
   Frame=833   AutoSelect=N.A.   AnalSect=Piles   MatProp=Default
   Frame=834   AutoSelect=N.A.   AnalSect=Piles   MatProp=Default
   Frame=835   AutoSelect=N.A.   AnalSect=Piles   MatProp=Default
   Frame=836   AutoSelect=N.A.   AnalSect=Piles   MatProp=Default
   Frame=837   AutoSelect=N.A.   AnalSect=Piles   MatProp=Default
   Frame=838   AutoSelect=N.A.   AnalSect=Piles   MatProp=Default
   Frame=839   AutoSelect=N.A.   AnalSect=Piles   MatProp=Default
   Frame=840   AutoSelect=N.A.   AnalSect=Piles   MatProp=Default
   Frame=841   AutoSelect=N.A.   AnalSect=Piles   MatProp=Default
   Frame=842   AutoSelect=N.A.   AnalSect=Piles   MatProp=Default
   Frame=843   AutoSelect=N.A.   AnalSect=Piles   MatProp=Default
   Frame=844   AutoSelect=N.A.   AnalSect=Piles   MatProp=Default
   Frame=845   AutoSelect=N.A.   AnalSect=Piles   MatProp=Default
   Frame=846   AutoSelect=N.A.   AnalSect=Piles   MatProp=Default
# ... 10 like lines cut
   Frame=857   AutoSelect=N.A.   AnalSect=EB-1   MatProp=Default
   Frame=858   AutoSelect=N.A.   AnalSect=EB-1   MatProp=Default
   Frame=859   AutoSelect=N.A.   AnalSect=EB-1   MatProp=Default
   Frame=860   AutoSelect=N.A.   AnalSect=EB-1   MatProp=Default
   Frame=861   AutoSelect=N.A.   AnalSect=EB-1   MatProp=Default
   Frame=862   AutoSelect=N.A.   AnalSect=EB-1   MatProp=Default
 
TABLE:  "FRAME SECTION PROPERTIES 01 - GENERAL"
   SectionName=EB   Material=BTCT   Shape=Rectangular   t3=1.2   t2=2   Area=2.4   TorsConst=0.7212469248   I33=0.288   I22=0.8   I23=0   AS2=2   AS3=2   S33Top=0.48   S33Bot=0.48   S22Left=0.8   S22Right=0.8   Z33=0.72   Z22=1.2 _
        R33=0.346410161513775   R22=0.577350269189626   CGOffset3=0   CGOffset2=0   EccV2=0   EccV3=0   Cw=0   Color=Red   FromFile=No   AMod=1   A2Mod=1   A3Mod=1   JMod=1   I2Mod=1   I3Mod=1   MMod=1   WMod=1
   SectionName=EB-1   Material=BTCT   Shape=Rectangular   t3=2   t2=2   Area=4   TorsConst=2.25333333333333   I33=1.33333333333333   I22=1.33333333333333   I23=0   AS2=3.33333333333333   AS3=3.33333333333333   S33Top=1.33333333333333 _
        S33Bot=1.33333333333333   S22Left=1.33333333333333   S22Right=1.33333333333333   Z33=2   Z22=2   R33=0.577350269189626   R22=0.577350269189626   CGOffset3=0   CGOffset2=0   EccV2=0   EccV3=0   Cw=0   Color=Magenta   FromFile=No _
        AMod=1   A2Mod=1   A3Mod=1   JMod=1   I2Mod=1   I3Mod=1   MMod=1   WMod=1
   SectionName=LB   Material=BTCT   Shape=Rectangular   t3=1.4   t2=2   Area=2.8   TorsConst=1.03873877613333   I33=0.457333333333333   I22=0.933333333333333   I23=0   AS2=2.33333333333333   AS3=2.33333333333333   S33Top=0.653333333333333 _
        S33Bot=0.653333333333333   S22Left=0.933333333333333   S22Right=0.933333333333333   Z33=0.98   Z22=1.4   R33=0.404145188432738   R22=0.577350269189626   CGOffset3=0   CGOffset2=0   EccV2=0   EccV3=0   Cw=0   Color=Cyan   FromFile=No _
        AMod=1   A2Mod=1   A3Mod=1   JMod=1   I2Mod=1   I3Mod=1   MMod=1   WMod=1
   SectionName=Piles   Material=BTCTCOC   Shape=Pipe   t3=0.4   tw=0.065   Area=0.0684081800319178   TorsConst=0.00199153314117921   I33=0.000995766570589603   I22=0.000995766570589603   I23=0   AS2=0.0350519180025674 _
        AS3=0.0350519180025674   S33Top=0.00497883285294802   S33Bot=0.00497883285294802   S22Left=0.00497883285294802   S22Right=0.00497883285294802   Z33=0.00738616666666667   Z22=0.00738616666666667   R33=0.120649285120137 _
        R22=0.120649285120137   CGOffset3=0   CGOffset2=0   EccV2=0   EccV3=0   Cw=0   Color=Yellow   FromFile=No   AMod=1   A2Mod=1   A3Mod=1   JMod=1   I2Mod=1   I3Mod=1   MMod=1   WMod=1
   SectionName=TB   Material=BTCT   Shape=Rectangular   t3=1.4   t2=2   Area=2.8   TorsConst=1.03873877613333   I33=0.457333333333333   I22=0.933333333333333   I23=0   AS2=2.33333333333333   AS3=2.33333333333333   S33Top=0.653333333333333 _
        S33Bot=0.653333333333333   S22Left=0.933333333333333   S22Right=0.933333333333333   Z33=0.98   Z22=1.4   R33=0.404145188432738   R22=0.577350269189626   CGOffset3=0   CGOffset2=0   EccV2=0   EccV3=0   Cw=0   Color=Green _
        FromFile=No   AMod=1   A2Mod=1   A3Mod=1   JMod=1   I2Mod=1   I3Mod=1   MMod=1   WMod=1
 
TABLE:  "FRAME SECTION PROPERTIES 02 - CONCRETE COLUMN"
   SectionName=EB   RebarMatL=A706   RebarMatC=A706   ReinfConfig=Rectangular   LatReinf=Ties   Cover=0.05   NumBars3Dir=2   NumBars2Dir=2   BarSizeL=12d   BarSizeC=10d   SpacingC=0.1   NumCBars2=2   NumCBars3=2   ReinfType=Design
   SectionName=EB-1   RebarMatL=A706   RebarMatC=A706   ReinfConfig=Rectangular   LatReinf=Ties   Cover=0.05   NumBars3Dir=2   NumBars2Dir=2   BarSizeL=12d   BarSizeC=10d   SpacingC=0.1   NumCBars2=2   NumCBars3=2   ReinfType=Design
   SectionName=LB   RebarMatL=A706   RebarMatC=A706   ReinfConfig=Rectangular   LatReinf=Ties   Cover=0.05   NumBars3Dir=2   NumBars2Dir=2   BarSizeL=12d   BarSizeC=10d   SpacingC=0.1   NumCBars2=2   NumCBars3=2   ReinfType=Design
   SectionName=TB   RebarMatL=A706   RebarMatC=A706   ReinfConfig=Rectangular   LatReinf=Ties   Cover=0.05   NumBars3Dir=2   NumBars2Dir=2   BarSizeL=12d   BarSizeC=10d   SpacingC=0.1   NumCBars2=2   NumCBars3=2   ReinfType=Design
 
TABLE:  "FRAME SECTION PROPERTIES 13 - TIME DEPENDENT"
   SectionName=EB   TypeSize=Auto   AutoSFSize=1
   SectionName=EB-1   TypeSize=Auto   AutoSFSize=1
   SectionName=LB   TypeSize=Auto   AutoSFSize=1
   SectionName=Piles   TypeSize=Auto   AutoSFSize=1
   SectionName=TB   TypeSize=Auto   AutoSFSize=1
 
TABLE:  "FUNCTION - PLOT FUNCTIONS"
   PlotFunc="Input Energy"   Type=Energy   Component=Input   Mode=All
 
TABLE:  "FUNCTION - POWER SPECTRAL DENSITY - USER"
   Name=UNIFPSD   Frequency=0   Value=1
   Name=UNIFPSD   Frequency=1   Value=1
 
TABLE:  "FUNCTION - RESPONSE SPECTRUM - USER"
   Name=UNIFRS   Period=0   Accel=1   FuncDamp=0.05
   Name=UNIFRS   Period=1   Accel=1
 
TABLE:  "FUNCTION - STEADY STATE - USER"
   Name=UNIFSS   Frequency=0   Value=1
   Name=UNIFSS   Frequency=1   Value=1
 
TABLE:  "FUNCTION - TIME HISTORY - USER"
   Name=RAMPTH   Time=0   Value=0
   Name=RAMPTH   Time=1   Value=1
   Name=RAMPTH   Time=4   Value=1
   Name=UNIFTH   Time=0   Value=1
   Name=UNIFTH   Time=1   Value=1
 
TABLE:  "GRID LINES"
   CoordSys=GLOBAL   AxisDir=X   GridID=A   XRYZCoord=-10   LineType=Primary   LineColor=Gray8Dark   Visible=Yes   BubbleLoc=End   AllVisible=Yes   BubbleSize=0.9375
   CoordSys=GLOBAL   AxisDir=X   GridID=B   XRYZCoord=-9   LineType=Primary   LineColor=Gray8Dark   Visible=Yes   BubbleLoc=End
   CoordSys=GLOBAL   AxisDir=X   GridID=C   XRYZCoord=-4.5   LineType=Primary   LineColor=Gray8Dark   Visible=Yes   BubbleLoc=End
   CoordSys=GLOBAL   AxisDir=X   GridID=D   XRYZCoord=0   LineType=Primary   LineColor=Gray8Dark   Visible=Yes   BubbleLoc=End
   CoordSys=GLOBAL   AxisDir=X   GridID=E   XRYZCoord=4.5   LineType=Primary   LineColor=Gray8Dark   Visible=Yes   BubbleLoc=End
   CoordSys=GLOBAL   AxisDir=X   GridID=F   XRYZCoord=9   LineType=Primary   LineColor=Gray8Dark   Visible=Yes   BubbleLoc=End
   CoordSys=GLOBAL   AxisDir=X   GridID=G   XRYZCoord=10   LineType=Primary   LineColor=Gray8Dark   Visible=Yes   BubbleLoc=End
   CoordSys=GLOBAL   AxisDir=Y   GridID=1   XRYZCoord=-5.2   LineType=Primary   LineColor=Gray8Dark   Visible=Yes   BubbleLoc=Start
   CoordSys=GLOBAL   AxisDir=Y   GridID=2   XRYZCoord=-4.2   LineType=Primary   LineColor=Gray8Dark   Visible=Yes   BubbleLoc=Start
   CoordSys=GLOBAL   AxisDir=Y   GridID=3   XRYZCoord=0   LineType=Primary   LineColor=Gray8Dark   Visible=Yes   BubbleLoc=Start
   CoordSys=GLOBAL   AxisDir=Y   GridID=4   XRYZCoord=4.2   LineType=Primary   LineColor=Gray8Dark   Visible=Yes   BubbleLoc=Start
   CoordSys=GLOBAL   AxisDir=Y   GridID=5   XRYZCoord=4.8   LineType=Primary   LineColor=Gray8Dark   Visible=Yes   BubbleLoc=Start
   CoordSys=GLOBAL   AxisDir=Z   GridID=Z1   XRYZCoord=0   LineType=Primary   LineColor=Gray8Dark   Visible=Yes   BubbleLoc=End
   CoordSys=GLOBAL   AxisDir=Z   GridID=Z2   XRYZCoord=13   LineType=Primary   LineColor=Gray8Dark   Visible=Yes   BubbleLoc=End
 
TABLE:  "GROUPS 1 - DEFINITIONS"
   GroupName=ALL   Selection=Yes   SectionCut=Yes   Steel=Yes   Concrete=Yes   Aluminum=Yes   ColdFormed=Yes   Stage=Yes   Bridge=Yes   AutoSeismic=No   AutoWind=No   SelDesSteel=No   SelDesAlum=No   SelDesCold=No   MassWeight=Yes   Color=Red
   GroupName=Pile   Selection=Yes   SectionCut=Yes   Steel=Yes   Concrete=Yes   Aluminum=Yes   ColdFormed=Yes   Stage=Yes   Bridge=Yes   AutoSeismic=No   AutoWind=No   SelDesSteel=No   SelDesAlum=No   SelDesCold=No   MassWeight=Yes   Color=Gray8Dark
   GroupName=DN   Selection=Yes   SectionCut=Yes   Steel=Yes   Concrete=Yes   Aluminum=Yes   ColdFormed=Yes   Stage=Yes   Bridge=Yes   AutoSeismic=No   AutoWind=No   SelDesSteel=No   SelDesAlum=No   SelDesCold=No   MassWeight=Yes   Color=Yellow
   GroupName=Pile_Toe   Selection=Yes   SectionCut=Yes   Steel=Yes   Concrete=Yes   Aluminum=Yes   ColdFormed=Yes   Stage=Yes   Bridge=Yes   AutoSeismic=No   AutoWind=No   SelDesSteel=No   SelDesAlum=No   SelDesCold=No   MassWeight=Yes   Color=Green
   GroupName=Pile_Bend   Selection=Yes   SectionCut=Yes   Steel=Yes   Concrete=Yes   Aluminum=Yes   ColdFormed=Yes   Stage=Yes   Bridge=Yes   AutoSeismic=No   AutoWind=No   SelDesSteel=No   SelDesAlum=No   SelDesCold=No   MassWeight=Yes   Color=Cyan
   GroupName=Beam   Selection=Yes   SectionCut=Yes   Steel=Yes   Concrete=Yes   Aluminum=Yes   ColdFormed=Yes   Stage=Yes   Bridge=Yes   AutoSeismic=No   AutoWind=No   SelDesSteel=No   SelDesAlum=No   SelDesCold=No   MassWeight=Yes   Color=Blue
   GroupName=Piles   Selection=Yes   SectionCut=Yes   Steel=Yes   Concrete=Yes   Aluminum=Yes   ColdFormed=Yes   Stage=Yes   Bridge=Yes   AutoSeismic=No   AutoWind=No   SelDesSteel=No   SelDesAlum=No   SelDesCold=No   MassWeight=Yes   Color=Green
   GroupName=Beams   Selection=Yes   SectionCut=Yes   Steel=Yes   Concrete=Yes   Aluminum=Yes   ColdFormed=Yes   Stage=Yes   Bridge=Yes   AutoSeismic=No   AutoWind=No   SelDesSteel=No   SelDesAlum=No   SelDesCold=No   MassWeight=Yes   Color=Cyan
 
TABLE:  "GROUPS 2 - ASSIGNMENTS"
 
TABLE:  "JOINT COORDINATES"
   Joint=663   CoordSys=GLOBAL   CoordType=Cartesian   XorR=-9   Y=-5   Z=0   SpecialJt=No   GUID=0a7b3fb0-8f09-4520-817d-e7d9d18173cf
   Joint=664   CoordSys=GLOBAL   CoordType=Cartesian   XorR=-9   Y=-4.8   Z=0   SpecialJt=No   GUID=7bdb8571-d72d-475a-b04d-572fb5e119b6
   Joint=665   CoordSys=GLOBAL   CoordType=Cartesian   XorR=-6   Y=-5   Z=0   SpecialJt=No   GUID=7e30b1e1-650e-4707-bb67-5c9ea06e0aaa
   Joint=666   CoordSys=GLOBAL   CoordType=Cartesian   XorR=-6   Y=-4.8   Z=0   SpecialJt=No   GUID=e0344093-fb7e-4b15-8413-6e9df107682f
   Joint=667   CoordSys=GLOBAL   CoordType=Cartesian   XorR=-3   Y=-5   Z=0   SpecialJt=No   GUID=b8801960-85fa-4690-bd67-6bc1b39b4c40
   Joint=668   CoordSys=GLOBAL   CoordType=Cartesian   XorR=-3   Y=-4.8   Z=0   SpecialJt=No   GUID=bece677a-a2cb-48df-b280-d14fffb45e4e
   Joint=669   CoordSys=GLOBAL   CoordType=Cartesian   XorR=0   Y=-5   Z=0   SpecialJt=No   GUID=65849759-4972-446e-ad58-9035115c8b49
   Joint=670   CoordSys=GLOBAL   CoordType=Cartesian   XorR=0   Y=-4.8   Z=0   SpecialJt=No   GUID=7977ca34-a8bd-474b-bfd0-49c8c02d1196
   Joint=671   CoordSys=GLOBAL   CoordType=Cartesian   XorR=3   Y=-5   Z=0   SpecialJt=No   GUID=01404757-1d48-4514-ad29-ead26d3e6c8d
   Joint=672   CoordSys=GLOBAL   CoordType=Cartesian   XorR=3   Y=-4.8   Z=0   SpecialJt=No   GUID=c4e7ae15-deb4-4475-b73d-17982d750d58
   Joint=673   CoordSys=GLOBAL   CoordType=Cartesian   XorR=6   Y=-5   Z=0   SpecialJt=No   GUID=83072fae-d4d7-4087-97f5-863af5576258
   Joint=674   CoordSys=GLOBAL   CoordType=Cartesian   XorR=6   Y=-4.8   Z=0   SpecialJt=No   GUID=91797e77-b7cb-463f-b1f4-88e5ffca1d1c
   Joint=675   CoordSys=GLOBAL   CoordType=Cartesian   XorR=9   Y=-5   Z=0   SpecialJt=No   GUID=8ecc5ea0-0fcd-4b43-8796-e15a89ac0878
   Joint=676   CoordSys=GLOBAL   CoordType=Cartesian   XorR=9   Y=-4.8   Z=0   SpecialJt=No   GUID=f0c1a9d7-e4f6-45c6-a32a-762bb0d39d7a
   Joint=677   CoordSys=GLOBAL   CoordType=Cartesian   XorR=-9   Y=0   Z=0   SpecialJt=No   GUID=b0c3f00c-b34a-4175-9b38-568475270250
   Joint=678   CoordSys=GLOBAL   CoordType=Cartesian   XorR=-6   Y=0   Z=0   SpecialJt=No   GUID=1d577157-1905-4bfa-82b2-ac20570f5cb3
   Joint=679   CoordSys=GLOBAL   CoordType=Cartesian   XorR=-3   Y=0   Z=0   SpecialJt=No   GUID=c2fe21da-53a6-4eab-80c4-92f57d3f4d32
   Joint=680   CoordSys=GLOBAL   CoordType=Cartesian   XorR=0   Y=0   Z=0   SpecialJt=No   GUID=ee92745b-292f-4ff0-a7c3-108ea2eb2171
   Joint=681   CoordSys=GLOBAL   CoordType=Cartesian   XorR=3   Y=0   Z=0   SpecialJt=No   GUID=78fdf2d0-ad26-4e1b-82bf-e36dca9a8fe2
   Joint=682   CoordSys=GLOBAL   CoordType=Cartesian   XorR=6   Y=0   Z=0   SpecialJt=No   GUID=a64008fe-1968-4153-814e-38c3288286bd
   Joint=683   CoordSys=GLOBAL   CoordType=Cartesian   XorR=9   Y=0   Z=0   SpecialJt=No   GUID=6e535245-0a3a-4a15-8875-4a4877f3abea
   Joint=684   CoordSys=GLOBAL   CoordType=Cartesian   XorR=-9   Y=4.8   Z=0   SpecialJt=No   GUID=6d887485-5fe2-4700-85c0-8a38c2f21e6d
   Joint=685   CoordSys=GLOBAL   CoordType=Cartesian   XorR=-6   Y=4.8   Z=0   SpecialJt=No   GUID=b2300008-7393-4a36-ad63-4a5b597e249d
   Joint=686   CoordSys=GLOBAL   CoordType=Cartesian   XorR=-3   Y=4.8   Z=0   SpecialJt=No   GUID=1fa78d8c-6ba8-4aed-a328-267637b77007
   Joint=687   CoordSys=GLOBAL   CoordType=Cartesian   XorR=0   Y=4.8   Z=0   SpecialJt=No   GUID=ac8d2fa9-770e-4c6d-a710-f34f1dbeff41
   Joint=688   CoordSys=GLOBAL   CoordType=Cartesian   XorR=3   Y=4.8   Z=0   SpecialJt=No   GUID=bcbbf7a3-ff6e-4ef0-891e-aae79fc426fa
   Joint=689   CoordSys=GLOBAL   CoordType=Cartesian   XorR=6   Y=4.8   Z=0   SpecialJt=No   GUID=8719891c-8a13-4a21-a537-b4dd345f2971
   Joint=690   CoordSys=GLOBAL   CoordType=Cartesian   XorR=9   Y=4.8   Z=0   SpecialJt=No   GUID=5110a9ce-b41b-46a1-87be-10694e7a8bad
   Joint=691   CoordSys=GLOBAL   CoordType=Cartesian   XorR=-9   Y=5   Z=0   SpecialJt=No   GUID=8fd2b865-186f-4f3d-8388-e55d2627e947
   Joint=692   CoordSys=GLOBAL   CoordType=Cartesian   XorR=-6   Y=5   Z=0   SpecialJt=No   GUID=31f1f11c-8935-4065-8176-e3b8da45fe79
   Joint=693   CoordSys=GLOBAL   CoordType=Cartesian   XorR=-3   Y=5   Z=0   SpecialJt=No   GUID=4b10b1a9-b72d-4784-8279-321fc5d5a2e1
   Joint=694   CoordSys=GLOBAL   CoordType=Cartesian   XorR=0   Y=5   Z=0   SpecialJt=No   GUID=dd12bb6e-899c-4b7b-9f5a-abf522fc3685
   Joint=695   CoordSys=GLOBAL   CoordType=Cartesian   XorR=3   Y=5   Z=0   SpecialJt=No   GUID=3347daa5-3aec-43b8-9b91-ffdb0721387f
   Joint=696   CoordSys=GLOBAL   CoordType=Cartesian   XorR=6   Y=5   Z=0   SpecialJt=No   GUID=25ad2402-d19c-46dd-be1d-bafc85853474
   Joint=697   CoordSys=GLOBAL   CoordType=Cartesian   XorR=9   Y=5   Z=0   SpecialJt=No   GUID=b40f5325-ff9b-457a-9390-7776ab20d249
   Joint=698   CoordSys=GLOBAL   CoordType=Cartesian   XorR=-10   Y=-4.8   Z=0   SpecialJt=No   GUID=d851d7d2-d81e-4e29-8621-287f2c24d2fe
   Joint=699   CoordSys=GLOBAL   CoordType=Cartesian   XorR=-10   Y=0   Z=0   SpecialJt=No   GUID=1e72a3f1-b561-4b8a-a387-fdd90187da31
   Joint=700   CoordSys=GLOBAL   CoordType=Cartesian   XorR=-10   Y=4.8   Z=0   SpecialJt=No   GUID=f6e12da2-349c-4bbd-b80d-4cc47f6ceb43
   Joint=701   CoordSys=GLOBAL   CoordType=Cartesian   XorR=10   Y=-4.8   Z=0   SpecialJt=No   GUID=971bcbdc-f045-4715-b244-61dd68cc10db
   Joint=702   CoordSys=GLOBAL   CoordType=Cartesian   XorR=10   Y=0   Z=0   SpecialJt=No   GUID=bd51f9f5-f2ba-4e9c-93e7-f5cf5b07ce63
   Joint=703   CoordSys=GLOBAL   CoordType=Cartesian   XorR=10   Y=4.8   Z=0   SpecialJt=No   GUID=e11891b7-4570-48c2-b2bc-377a076edb1a
   Joint=704   CoordSys=GLOBAL   CoordType=Cartesian   XorR=-9   Y=-4.8   Z=-3   SpecialJt=No   GUID=747f5002-c280-46e7-aad1-1e3174ceae70
   Joint=705   CoordSys=GLOBAL   CoordType=Cartesian   XorR=-9   Y=-4.8   Z=-13.956351643416   SpecialJt=No   GUID=d5d2fc47-94e3-414d-ba62-4b78a4c38feb
   Joint=706   CoordSys=GLOBAL   CoordType=Cartesian   XorR=-9   Y=-4.8   Z=-39   SpecialJt=No   GUID=39aa9091-a38d-4d6f-9bad-c519009b6e8b
   Joint=707   CoordSys=GLOBAL   CoordType=Cartesian   XorR=-6   Y=-4.8   Z=-3   SpecialJt=No   GUID=17d11ece-9a6c-4b6d-81d4-3425dc0c2518
   Joint=708   CoordSys=GLOBAL   CoordType=Cartesian   XorR=-6   Y=-4.8   Z=-13.956351643416   SpecialJt=No   GUID=1dce3659-a821-4328-bebc-43e1749dcf0b
   Joint=709   CoordSys=GLOBAL   CoordType=Cartesian   XorR=-6   Y=-4.8   Z=-39   SpecialJt=No   GUID=8fc13d73-2009-4b80-b636-50b69a9e513f
   Joint=710   CoordSys=GLOBAL   CoordType=Cartesian   XorR=-3   Y=-4.8   Z=-3   SpecialJt=No   GUID=31da1da7-2c20-4c3f-b21b-5f6f6c57d8bf
   Joint=711   CoordSys=GLOBAL   CoordType=Cartesian   XorR=-3   Y=-4.8   Z=-13.956351643416   SpecialJt=No   GUID=9ef02523-daae-42aa-aab4-cda1ec95e90f
   Joint=712   CoordSys=GLOBAL   CoordType=Cartesian   XorR=-3   Y=-4.8   Z=-39   SpecialJt=No   GUID=466cf448-26ea-4ee4-8ddf-b95f3716d7e0
   Joint=713   CoordSys=GLOBAL   CoordType=Cartesian   XorR=0   Y=-4.8   Z=-3   SpecialJt=No   GUID=657cdc19-29b2-4a2c-8d4d-1c05686937b1
   Joint=714   CoordSys=GLOBAL   CoordType=Cartesian   XorR=0   Y=-4.8   Z=-13.956351643416   SpecialJt=No   GUID=41332c42-27fb-4499-a815-2cd81dd2fe92
   Joint=715   CoordSys=GLOBAL   CoordType=Cartesian   XorR=0   Y=-4.8   Z=-39   SpecialJt=No   GUID=c6243800-6f9a-496e-a4df-02f04ee8ab39
   Joint=716   CoordSys=GLOBAL   CoordType=Cartesian   XorR=3   Y=-4.8   Z=-3   SpecialJt=No   GUID=d4895f69-efba-4805-9780-1f6fbdc37c82
   Joint=717   CoordSys=GLOBAL   CoordType=Cartesian   XorR=3   Y=-4.8   Z=-13.956351643416   SpecialJt=No   GUID=8ef52836-dc53-42ff-84a5-9402b70c2e56
   Joint=718   CoordSys=GLOBAL   CoordType=Cartesian   XorR=3   Y=-4.8   Z=-39   SpecialJt=No   GUID=2742c6a9-5a0f-4955-8e56-c50e95357dff
   Joint=719   CoordSys=GLOBAL   CoordType=Cartesian   XorR=6   Y=-4.8   Z=-3   SpecialJt=No   GUID=6f442981-c330-484b-89b3-a6b73289d149
   Joint=720   CoordSys=GLOBAL   CoordType=Cartesian   XorR=6   Y=-4.8   Z=-13.956351643416   SpecialJt=No   GUID=3e118782-a2e5-422b-b1d7-1d70b7d77d00
   Joint=721   CoordSys=GLOBAL   CoordType=Cartesian   XorR=6   Y=-4.8   Z=-39   SpecialJt=No   GUID=b67f518d-3a0f-47c8-b2c7-2c77006d1df6
   Joint=722   CoordSys=GLOBAL   CoordType=Cartesian   XorR=9   Y=-4.8   Z=-3   SpecialJt=No   GUID=885e6f54-807a-415f-a9d6-80f535ef85df
   Joint=723   CoordSys=GLOBAL   CoordType=Cartesian   XorR=9   Y=-4.8   Z=-13.956351643416   SpecialJt=No   GUID=6a8cbbe4-4bf8-4dc4-aef5-5e25b28f7f01
   Joint=724   CoordSys=GLOBAL   CoordType=Cartesian   XorR=9   Y=-4.8   Z=-39   SpecialJt=No   GUID=325c0523-dec5-4782-8579-1d1014b8ed24
   Joint=725   CoordSys=GLOBAL   CoordType=Cartesian   XorR=-9   Y=0   Z=-13.956351643416   SpecialJt=No   GUID=23d3c48a-a925-45f5-b26e-ac78dfc12f55
   Joint=726   CoordSys=GLOBAL   CoordType=Cartesian   XorR=-9   Y=0   Z=-39   SpecialJt=No   GUID=3d0c0281-2063-4b72-872f-e5b08dfb052e
   Joint=727   CoordSys=GLOBAL   CoordType=Cartesian   XorR=-6   Y=0   Z=-13.956351643416   SpecialJt=No   GUID=7b6b7108-175a-4b36-a0f3-37da595ffd08
   Joint=728   CoordSys=GLOBAL   CoordType=Cartesian   XorR=-6   Y=0   Z=-39   SpecialJt=No   GUID=985cd05e-abbc-4505-a52a-0b638037ec75
   Joint=729   CoordSys=GLOBAL   CoordType=Cartesian   XorR=-3   Y=0   Z=-13.956351643416   SpecialJt=No   GUID=380316af-a32e-4fef-83c2-9813d55169dd
   Joint=730   CoordSys=GLOBAL   CoordType=Cartesian   XorR=-3   Y=0   Z=-39   SpecialJt=No   GUID=9d36dc2f-ecf6-474b-bd5f-a7fd62321f54
   Joint=731   CoordSys=GLOBAL   CoordType=Cartesian   XorR=0   Y=0   Z=-13.956351643416   SpecialJt=No   GUID=0e9f925c-c154-490c-b4df-ba3c2f179b51
   Joint=732   CoordSys=GLOBAL   CoordType=Cartesian   XorR=0   Y=0   Z=-39   SpecialJt=No   GUID=0c0482f6-d903-41b4-b1d7-e1dea0b1bbb0
   Joint=733   CoordSys=GLOBAL   CoordType=Cartesian   XorR=3   Y=0   Z=-13.956351643416   SpecialJt=No   GUID=0e15e38c-1f48-48fa-9007-54d98becc542
   Joint=734   CoordSys=GLOBAL   CoordType=Cartesian   XorR=3   Y=0   Z=-39   SpecialJt=No   GUID=40c8be76-0dc5-4828-a576-8e03d63eb3a0
   Joint=735   CoordSys=GLOBAL   CoordType=Cartesian   XorR=6   Y=0   Z=-13.956351643416   SpecialJt=No   GUID=ad0b1869-183b-410f-bbb3-ade350287b80
   Joint=736   CoordSys=GLOBAL   CoordType=Cartesian   XorR=6   Y=0   Z=-39   SpecialJt=No   GUID=97534e4f-3ddd-4c57-b6e7-54f413c88670
   Joint=737   CoordSys=GLOBAL   CoordType=Cartesian   XorR=9   Y=0   Z=-13.956351643416   SpecialJt=No   GUID=6170f5a3-eeaf-4aad-a0f2-6b0fd8046d22
   Joint=738   CoordSys=GLOBAL   CoordType=Cartesian   XorR=9   Y=0   Z=-39   SpecialJt=No   GUID=a4c2b81e-5ea1-44a5-9ffe-361fc3be6bf0
   Joint=739   CoordSys=GLOBAL   CoordType=Cartesian   XorR=-9   Y=4.8   Z=-13.956351643416   SpecialJt=No   GUID=c19efeca-0a73-4ccf-823a-ac62c3962950
   Joint=740   CoordSys=GLOBAL   CoordType=Cartesian   XorR=-9   Y=4.8   Z=-39   SpecialJt=No   GUID=0a0eb385-ae7c-48cf-8095-416d49af2a48
   Joint=741   CoordSys=GLOBAL   CoordType=Cartesian   XorR=-6   Y=4.8   Z=-13.956351643416   SpecialJt=No   GUID=e65c2593-8d8f-4f29-83ea-f3f45bd89aee
   Joint=742   CoordSys=GLOBAL   CoordType=Cartesian   XorR=-6   Y=4.8   Z=-39   SpecialJt=No   GUID=645b1870-a4ce-4bcf-9ee6-0b0141e10b5c
   Joint=743   CoordSys=GLOBAL   CoordType=Cartesian   XorR=-3   Y=4.8   Z=-13.956351643416   SpecialJt=No   GUID=a9bc885a-9ae9-4da3-b1b3-d5f1ff74d67f
   Joint=744   CoordSys=GLOBAL   CoordType=Cartesian   XorR=-3   Y=4.8   Z=-39   SpecialJt=No   GUID=e630dc37-9767-419a-9fec-a53c0afa4c7f
   Joint=745   CoordSys=GLOBAL   CoordType=Cartesian   XorR=0   Y=4.8   Z=-13.956351643416   SpecialJt=No   GUID=faea88dd-2d33-4758-b2d9-a3985148c2c4
   Joint=746   CoordSys=GLOBAL   CoordType=Cartesian   XorR=0   Y=4.8   Z=-39   SpecialJt=No   GUID=9a6a659a-a10d-43a9-9e9a-28a71075bf2e
   Joint=747   CoordSys=GLOBAL   CoordType=Cartesian   XorR=3   Y=4.8   Z=-13.956351643416   SpecialJt=No   GUID=41b0a1e6-6736-45a7-8650-fff3d53edf63
   Joint=748   CoordSys=GLOBAL   CoordType=Cartesian   XorR=3   Y=4.8   Z=-39   SpecialJt=No   GUID=b1c11fb1-4b12-4d37-8c91-0cfb3a0b00a2
   Joint=749   CoordSys=GLOBAL   CoordType=Cartesian   XorR=6   Y=4.8   Z=-13.956351643416   SpecialJt=No   GUID=87f90d9e-aacc-4b1e-bb52-abe6f648d47e
   Joint=750   CoordSys=GLOBAL   CoordType=Cartesian   XorR=6   Y=4.8   Z=-39   SpecialJt=No   GUID=0dd7e67e-a182-47e1-9aa9-a871e39308ed
   Joint=751   CoordSys=GLOBAL   CoordType=Cartesian   XorR=9   Y=4.8   Z=-13.956351643416   SpecialJt=No   GUID=f4300d3b-33e4-4c88-9660-000973a696c7
   Joint=752   CoordSys=GLOBAL   CoordType=Cartesian   XorR=9   Y=4.8   Z=-39   SpecialJt=No   GUID=95f4a719-2e07-4c03-aa39-b497a034dac8
   Joint=753   CoordSys=GLOBAL   CoordType=Cartesian   XorR=-10   Y=-5   Z=0   SpecialJt=No   GUID=55dea9b6-45d8-4bcc-be3e-2b32f665b886
   Joint=754   CoordSys=GLOBAL   CoordType=Cartesian   XorR=10   Y=-5   Z=0   SpecialJt=No   GUID=4dfd2cf7-441c-46bb-b635-a24d44fa653c
   Joint=755   CoordSys=GLOBAL   CoordType=Cartesian   XorR=-10   Y=5   Z=0   SpecialJt=No   GUID=76a6a989-d40d-4592-8c04-157c6e82c313
   Joint=756   CoordSys=GLOBAL   CoordType=Cartesian   XorR=10   Y=5   Z=0   SpecialJt=No   GUID=6397c5d5-3f1e-4926-a326-453bfdb0beb5
 
TABLE:  "JOINT PATTERN DEFINITIONS"
   Pattern=Default
 
TABLE:  "JOINT RESTRAINT ASSIGNMENTS"
   Joint=705   U1=Yes   U2=Yes   U3=No   R1=Yes   R2=Yes   R3=Yes
   Joint=706   U1=No   U2=No   U3=Yes   R1=No   R2=No   R3=No
   Joint=708   U1=Yes   U2=Yes   U3=No   R1=Yes   R2=Yes   R3=Yes
   Joint=709   U1=No   U2=No   U3=Yes   R1=No   R2=No   R3=No
   Joint=711   U1=Yes   U2=Yes   U3=No   R1=Yes   R2=Yes   R3=Yes
   Joint=712   U1=No   U2=No   U3=Yes   R1=No   R2=No   R3=No
   Joint=714   U1=Yes   U2=Yes   U3=No   R1=Yes   R2=Yes   R3=Yes
   Joint=715   U1=No   U2=No   U3=Yes   R1=No   R2=No   R3=No
   Joint=717   U1=Yes   U2=Yes   U3=No   R1=Yes   R2=Yes   R3=Yes
   Joint=718   U1=No   U2=No   U3=Yes   R1=No   R2=No   R3=No
   Joint=720   U1=Yes   U2=Yes   U3=No   R1=Yes   R2=Yes   R3=Yes
   Joint=721   U1=No   U2=No   U3=Yes   R1=No   R2=No   R3=No
   Joint=723   U1=Yes   U2=Yes   U3=No   R1=Yes   R2=Yes   R3=Yes
   Joint=724   U1=No   U2=No   U3=Yes   R1=No   R2=No   R3=No
   Joint=725   U1=Yes   U2=Yes   U3=No   R1=Yes   R2=Yes   R3=Yes
   Joint=726   U1=No   U2=No   U3=Yes   R1=No   R2=No   R3=No
   Joint=727   U1=Yes   U2=Yes   U3=No   R1=Yes   R2=Yes   R3=Yes
   Joint=728   U1=No   U2=No   U3=Yes   R1=No   R2=No   R3=No
   Joint=729   U1=Yes   U2=Yes   U3=No   R1=Yes   R2=Yes   R3=Yes
   Joint=730   U1=No   U2=No   U3=Yes   R1=No   R2=No   R3=No
   Joint=731   U1=Yes   U2=Yes   U3=No   R1=Yes   R2=Yes   R3=Yes
   Joint=732   U1=No   U2=No   U3=Yes   R1=No   R2=No   R3=No
   Joint=733   U1=Yes   U2=Yes   U3=No   R1=Yes   R2=Yes   R3=Yes
   Joint=734   U1=No   U2=No   U3=Yes   R1=No   R2=No   R3=No
   Joint=735   U1=Yes   U2=Yes   U3=No   R1=Yes   R2=Yes   R3=Yes
   Joint=736   U1=No   U2=No   U3=Yes   R1=No   R2=No   R3=No
   Joint=737   U1=Yes   U2=Yes   U3=No   R1=Yes   R2=Yes   R3=Yes
   Joint=738   U1=No   U2=No   U3=Yes   R1=No   R2=No   R3=No
   Joint=739   U1=Yes   U2=Yes   U3=No   R1=Yes   R2=Yes   R3=Yes
   Joint=740   U1=No   U2=No   U3=Yes   R1=No   R2=No   R3=No
   Joint=741   U1=Yes   U2=Yes   U3=No   R1=Yes   R2=Yes   R3=Yes
   Joint=742   U1=No   U2=No   U3=Yes   R1=No   R2=No   R3=No
   Joint=743   U1=Yes   U2=Yes   U3=No   R1=Yes   R2=Yes   R3=Yes
   Joint=744   U1=No   U2=No   U3=Yes   R1=No   R2=No   R3=No
   Joint=745   U1=Yes   U2=Yes   U3=No   R1=Yes   R2=Yes   R3=Yes
   Joint=746   U1=No   U2=No   U3=Yes   R1=No   R2=No   R3=No
   Joint=747   U1=Yes   U2=Yes   U3=No   R1=Yes   R2=Yes   R3=Yes
   Joint=748   U1=No   U2=No   U3=Yes   R1=No   R2=No   R3=No
   Joint=749   U1=Yes   U2=Yes   U3=No   R1=Yes   R2=Yes   R3=Yes
   Joint=750   U1=No   U2=No   U3=Yes   R1=No   R2=No   R3=No
   Joint=751   U1=Yes   U2=Yes   U3=No   R1=Yes   R2=Yes   R3=Yes
   Joint=752   U1=No   U2=No   U3=Yes   R1=No   R2=No   R3=No
 
TABLE:  "LOAD CASE DEFINITIONS"
   Case=DEAD   Type=LinStatic   InitialCond=Zero   DesTypeOpt="Prog Det"   DesignType=Dead   DesActOpt="Prog Det"   DesignAct=Non-Composite   AutoType=None   RunCase=Yes
   Case=MODAL   Type=LinModal   InitialCond=Zero   DesTypeOpt="Prog Det"   DesignType=Other   DesActOpt="Prog Det"   DesignAct=Other   AutoType=None   RunCase=Yes
   Case=LL   Type=LinStatic   InitialCond=Zero   DesTypeOpt="Prog Det"   DesignType=Live   DesActOpt="Prog Det"   DesignAct="Short-Term Composite"   AutoType=None   RunCase=Yes
 
TABLE:  "LOAD PATTERN DEFINITIONS"
   LoadPat=DEAD   DesignType=Dead   SelfWtMult=1
   LoadPat=LL   DesignType=Live   SelfWtMult=0
 
TABLE:  "MASS SOURCE"
   MassSource=MSSSRC1   Elements=Yes   Masses=Yes   Loads=No   IsDefault=Yes
 
TABLE:  "MATERIAL PROPERTIES 01 - GENERAL"
   Material=A706   Type=Rebar   SymType=Uniaxial   TempDepend=No   Color=Gray8Dark   GUID=30185aab-1311-4f4b-9ffe-ddad707d22d9   Notes="ASTM A706 added 8/23/2025 4:27:57 PM"
   Material=BTCT   Type=Concrete   SymType=Isotropic   TempDepend=No   Color=Blue   Notes="Concrete added 24-Feb-23 16:30:01"
   Material=BTCTCOC   Type=Concrete   SymType=Isotropic   TempDepend=No   Color=Blue   Notes="Concrete added 24-Feb-23 16:30:01"
   Material=Steel   Type=Steel   SymType=Isotropic   TempDepend=No   Color=Magenta   GUID=2f952889-4898-4964-97a4-5fb5c5008d33   Notes="Steel added 8/24/2025 2:51:43 PM"
   Material=Tendon   Type=Tendon   SymType=Uniaxial   TempDepend=No   Color=Yellow   GUID=7dfcd093-823e-4b3a-b96f-35d5bcaf456f   Notes="Tendon added 8/24/2025 2:51:43 PM"
 
TABLE:  "MATERIAL PROPERTIES 02 - BASIC MECHANICAL PROPERTIES"
   Material=A706   UnitWeight=7.84904757236607   UnitMass=0.800380070686609   E1=20389019.1580383   A1=1.16999994421006E-05
   Material=BTCT   UnitWeight=2.40276966501002   UnitMass=0.245014307353044   E1=2900000   G12=1208333.33333333   U12=0.2   A1=9.9E-06
   Material=BTCTCOC   UnitWeight=2.40276966501002   UnitMass=0.245014307353044   E1=3800000000   G12=1583333333.33333   U12=0.2   A1=9.9E-06
   Material=Steel   UnitWeight=7.84904757236607   UnitMass=0.800380070686609   E1=20389019.1580383   G12=7841930.44539935   U12=0.3   A1=1.17E-05
   Material=Tendon   UnitWeight=7.84904757236607   UnitMass=0.800380070686609   E1=20037484.3449687   A1=1.16999994421006E-05
 
TABLE:  "MATERIAL PROPERTIES 03A - STEEL DATA"
   Material=Steel   Fy=35153.4813069626   Fu=45699.5256990514   EffFy=38668.8294376589   EffFu=50269.4782689565   SSCurveOpt=Simple   SSHysType=Kinematic   SHard=0.015   SMax=0.11   SRup=0.17   FinalSlope=-0.1   CoupModType="Von Mises"
 
TABLE:  "MATERIAL PROPERTIES 03B - CONCRETE DATA"
   Material=BTCT   Fc=2812.27850455701   eFc=2812.27850455701   LtWtConc=No   SSCurveOpt=Mander   SSHysType=Takeda   SFc=0.002   SCap=0.005   FinalSlope=-0.1   FAngle=0   DAngle=0   CoupModType="Modified Darwin-Pecknold"
   Material=BTCTCOC   Fc=2812.27850455701   eFc=2812.27850455701   LtWtConc=No   SSCurveOpt=Mander   SSHysType=Takeda   SFc=0.002   SCap=0.005   FinalSlope=-0.1   FAngle=0   DAngle=0   CoupModType="Modified Darwin-Pecknold"
 
TABLE:  "MATERIAL PROPERTIES 03E - REBAR DATA"
   Material=A706   Fy=42184.1775683551   Fu=56245.5700911402   EffFy=46402.5953251907   EffFu=61870.1271002542   SSCurveOpt=Simple   SSHysType=Kinematic   SHard=0.011   SCap=0.11   FinalSlope=-0.1   UseCTDef=No   CoupModType="Von Mises"
 
TABLE:  "MATERIAL PROPERTIES 03F - TENDON DATA"
   Material=Tendon   Fy=172322.365366731   Fu=189828.799057598   SSCurveOpt="270 ksi"   SSHysType=Kinematic   FinalSlope=-0.1   CoupModType="Von Mises"
 
TABLE:  "MATERIAL PROPERTIES 03J - COUPLED NONLINEAR VON MISES DATA"
   Material=A706   YieldStress=46402.5953251907   LinIsoHard=No   LinKinHard=No   NLIsoSaHard=No
   Material=Steel   YieldStress=38668.8294376589   LinIsoHard=No   LinKinHard=No   NLIsoSaHard=No
   Material=Tendon   YieldStress=172322.365366731   LinIsoHard=No   LinKinHard=No   NLIsoSaHard=No
 
TABLE:  "MATERIAL PROPERTIES 06 - DAMPING PARAMETERS"
   Material=A706   ModalRatio=0   VisMass=0   VisStiff=0   HysMass=0   HysStiff=0
   Material=BTCT   ModalRatio=0   VisMass=0   VisStiff=0   HysMass=0   HysStiff=0
   Material=BTCTCOC   ModalRatio=0   VisMass=0   VisStiff=0   HysMass=0   HysStiff=0
   Material=Steel   ModalRatio=0   VisMass=0   VisStiff=0   HysMass=0   HysStiff=0
   Material=Tendon   ModalRatio=0   VisMass=0   VisStiff=0   HysMass=0   HysStiff=0
 
TABLE:  "MATERIAL PROPERTIES 09 - ACCEPTANCE CRITERIA"
   Material=A706   IOTens=0.01   LSTens=0.02   CPTens=0.05   IOComp=-0.005   LSComp=-0.01   CPComp=-0.02
   Material=BTCT   IOTens=0.01   LSTens=0.02   CPTens=0.05   IOComp=-0.003   LSComp=-0.006   CPComp=-0.015   IgnoreTens=Yes
   Material=BTCTCOC   IOTens=0.01   LSTens=0.02   CPTens=0.05   IOComp=-0.003   LSComp=-0.006   CPComp=-0.015   IgnoreTens=Yes
   Material=Steel   IOTens=0.01   LSTens=0.02   CPTens=0.05   IOComp=-0.005   LSComp=-0.01   CPComp=-0.02
   Material=Tendon   IOTens=0.015   LSTens=0.023   CPTens=0.03   IOComp=-0.015   LSComp=-0.023   CPComp=-0.03
 
TABLE:  "OPTIONS - COLORS - DISPLAY"
   DeviceType=Screen   Points=Blue   LinesFrame=Blue   LinesFrmDL=Blue   LinesCable=Green   LinesTendon=Green   SpringLinks=Green   Restraints=Green   Releases=Green   Axes=Cyan   Text=Black   ShadowLines=Gray8Dark   GuideLines=Gray8Dark _
        Highlight=Red   Selection=10504778   AreaFillBot=Red   AreaFillTop=16744703   AreaFillSd=Red   AreaEdge=DarkRed   SolidF1=Red   SolidF2=Blue   SolidF3=Green   SolidF4=Yellow   SolidF5=White   SolidF6=Cyan   SolidEdge=DarkRed _
        Floor=Gray4   Background=White   BGLowLeft=White   BGLowRight=White   BGUpRight=White   Darkness=0.5
   DeviceType=Printer   Points=Gray8Dark   LinesFrame=Black   LinesFrmDL=Gray4   LinesCable=Black   LinesTendon=Black   SpringLinks=Gray8Dark   Restraints=Gray8Dark   Releases=Gray4   Axes=Black   Text=Black   ShadowLines=Gray4 _
        GuideLines=Gray4   Highlight=Black   Selection=Black   AreaFillBot=Gray4   AreaFillTop=Gray8Dark   AreaFillSd=Gray4   AreaEdge=Black   SolidF1=Gray1Light   SolidF2=Gray2   SolidF3=Gray3   SolidF4=Gray4   SolidF5=Gray5 _
        SolidF6=Gray6   SolidEdge=Black   Floor=Gray4   Background=White   BGLowLeft=White   BGLowRight=White   BGUpRight=White   Darkness=0.5
   DeviceType="Color Printer"   Points=Blue   LinesFrame=Blue   LinesFrmDL=Blue   LinesCable=Green   LinesTendon=Green   SpringLinks=Green   Restraints=Green   Releases=Green   Axes=Cyan   Text=Black   ShadowLines=Gray8Dark _
        GuideLines=Gray8Dark   Highlight=Red   Selection=10504778   AreaFillBot=Red   AreaFillTop=16744703   AreaFillSd=Red   AreaEdge=DarkRed   SolidF1=Red   SolidF2=Blue   SolidF3=Green   SolidF4=Yellow   SolidF5=White   SolidF6=Cyan _
        SolidEdge=DarkRed   Floor=Gray4   Background=White   BGLowLeft=White   BGLowRight=White   BGUpRight=White   Darkness=0.5
 
TABLE:  "OPTIONS - COLORS - OUTPUT"
   DeviceType=Screen   Contour1=13107400   Contour2=6553828   Contour3=Red   Contour4=16639   Contour5=Orange   Contour6=43775   Contour7=54527   Contour8=Yellow   Contour9=65408   Contour10=Green   Contour11=8453888   Contour12=Cyan _
        Contour13=16755200   Contour14=16733440   Contour15=Blue   Transpare=0.5   Ratio1=Cyan   Ratio2=Green   Ratio3=Yellow   Ratio4=Orange   Ratio5=Red   RatioNotD=Gray4   RatioNotC=Red   RatioVal1=0.5   RatioVal2=0.7   RatioVal3=0.9 _
        RatioVal4=1   DFillPos=Blue   DFillNeg=Red   DFillRPos=Green   DFillRNeg=Green
   DeviceType=Printer   Contour1=Black   Contour2=3158064   Contour3=4210752   Contour4=5263440   Contour5=6316128   Contour6=7368816   Contour7=Gray8Dark   Contour8=Gray7   Contour9=Gray6   Contour10=Gray5   Contour11=Gray4 _
        Contour12=Gray3   Contour13=Gray2   Contour14=Gray1Light   Contour15=White   Transpare=0   Ratio1=Gray2   Ratio2=Gray4   Ratio3=Gray8Dark   Ratio4=4210752   Ratio5=Black   RatioNotD=Gray4   RatioNotC=Black   RatioVal1=0.5 _
        RatioVal2=0.7   RatioVal3=0.9   RatioVal4=1   DFillPos=Gray8Dark   DFillNeg=Gray8Dark   DFillRPos=4210752   DFillRNeg=4210752
   DeviceType="Color Printer"   Contour1=13107400   Contour2=6553828   Contour3=Red   Contour4=16639   Contour5=Orange   Contour6=43775   Contour7=54527   Contour8=Yellow   Contour9=65408   Contour10=Green   Contour11=8453888 _
        Contour12=Cyan   Contour13=16755200   Contour14=16733440   Contour15=Blue   Transpare=0   Ratio1=Cyan   Ratio2=Green   Ratio3=Yellow   Ratio4=Orange   Ratio5=Red   RatioNotD=Gray4   RatioNotC=Red   RatioVal1=0.5   RatioVal2=0.7 _
        RatioVal3=0.9   RatioVal4=1   DFillPos=Blue   DFillNeg=Red   DFillRPos=Green   DFillRNeg=Green
 
TABLE:  "OVERWRITES - CONCRETE DESIGN - CSA-A233-14"
   Frame=756   DesignSect="Program Determined"   FrameType="Program Determined"   RLLF=0   XLMajor=0   XLMinor=0   XKMajor=0   XKMinor=0   CmMajor=0   CmMinor=0   DbMajor=0   DbMinor=0   DsMajor=0   DsMinor=0   Rd=0   Ro=0   MaxAggSize=0
   Frame=757   DesignSect="Program Determined"   FrameType="Program Determined"   RLLF=0   XLMajor=0   XLMinor=0   XKMajor=0   XKMinor=0   CmMajor=0   CmMinor=0   DbMajor=0   DbMinor=0   DsMajor=0   DsMinor=0   Rd=0   Ro=0   MaxAggSize=0
   Frame=758   DesignSect="Program Determined"   FrameType="Program Determined"   RLLF=0   XLMajor=0   XLMinor=0   XKMajor=0   XKMinor=0   CmMajor=0   CmMinor=0   DbMajor=0   DbMinor=0   DsMajor=0   DsMinor=0   Rd=0   Ro=0   MaxAggSize=0
   Frame=759   DesignSect="Program Determined"   FrameType="Program Determined"   RLLF=0   XLMajor=0   XLMinor=0   XKMajor=0   XKMinor=0   CmMajor=0   CmMinor=0   DbMajor=0   DbMinor=0   DsMajor=0   DsMinor=0   Rd=0   Ro=0   MaxAggSize=0
   Frame=760   DesignSect="Program Determined"   FrameType="Program Determined"   RLLF=0   XLMajor=0   XLMinor=0   XKMajor=0   XKMinor=0   CmMajor=0   CmMinor=0   DbMajor=0   DbMinor=0   DsMajor=0   DsMinor=0   Rd=0   Ro=0   MaxAggSize=0
   Frame=761   DesignSect="Program Determined"   FrameType="Program Determined"   RLLF=0   XLMajor=0   XLMinor=0   XKMajor=0   XKMinor=0   CmMajor=0   CmMinor=0   DbMajor=0   DbMinor=0   DsMajor=0   DsMinor=0   Rd=0   Ro=0   MaxAggSize=0
   Frame=762   DesignSect="Program Determined"   FrameType="Program Determined"   RLLF=0   XLMajor=0   XLMinor=0   XKMajor=0   XKMinor=0   CmMajor=0   CmMinor=0   DbMajor=0   DbMinor=0   DsMajor=0   DsMinor=0   Rd=0   Ro=0   MaxAggSize=0
   Frame=763   DesignSect="Program Determined"   FrameType="Program Determined"   RLLF=0   XLMajor=0   XLMinor=0   XKMajor=0   XKMinor=0   CmMajor=0   CmMinor=0   DbMajor=0   DbMinor=0   DsMajor=0   DsMinor=0   Rd=0   Ro=0   MaxAggSize=0
   Frame=764   DesignSect="Program Determined"   FrameType="Program Determined"   RLLF=0   XLMajor=0   XLMinor=0   XKMajor=0   XKMinor=0   CmMajor=0   CmMinor=0   DbMajor=0   DbMinor=0   DsMajor=0   DsMinor=0   Rd=0   Ro=0   MaxAggSize=0
   Frame=765   DesignSect="Program Determined"   FrameType="Program Determined"   RLLF=0   XLMajor=0   XLMinor=0   XKMajor=0   XKMinor=0   CmMajor=0   CmMinor=0   DbMajor=0   DbMinor=0   DsMajor=0   DsMinor=0   Rd=0   Ro=0   MaxAggSize=0
   Frame=766   DesignSect="Program Determined"   FrameType="Program Determined"   RLLF=0   XLMajor=0   XLMinor=0   XKMajor=0   XKMinor=0   CmMajor=0   CmMinor=0   DbMajor=0   DbMinor=0   DsMajor=0   DsMinor=0   Rd=0   Ro=0   MaxAggSize=0
   Frame=767   DesignSect="Program Determined"   FrameType="Program Determined"   RLLF=0   XLMajor=0   XLMinor=0   XKMajor=0   XKMinor=0   CmMajor=0   CmMinor=0   DbMajor=0   DbMinor=0   DsMajor=0   DsMinor=0   Rd=0   Ro=0   MaxAggSize=0
   Frame=768   DesignSect="Program Determined"   FrameType="Program Determined"   RLLF=0   XLMajor=0   XLMinor=0   XKMajor=0   XKMinor=0   CmMajor=0   CmMinor=0   DbMajor=0   DbMinor=0   DsMajor=0   DsMinor=0   Rd=0   Ro=0   MaxAggSize=0
   Frame=769   DesignSect="Program Determined"   FrameType="Program Determined"   RLLF=0   XLMajor=0   XLMinor=0   XKMajor=0   XKMinor=0   CmMajor=0   CmMinor=0   DbMajor=0   DbMinor=0   DsMajor=0   DsMinor=0   Rd=0   Ro=0   MaxAggSize=0
   Frame=770   DesignSect="Program Determined"   FrameType="Program Determined"   RLLF=0   XLMajor=0   XLMinor=0   XKMajor=0   XKMinor=0   CmMajor=0   CmMinor=0   DbMajor=0   DbMinor=0   DsMajor=0   DsMinor=0   Rd=0   Ro=0   MaxAggSize=0
   Frame=771   DesignSect="Program Determined"   FrameType="Program Determined"   RLLF=0   XLMajor=0   XLMinor=0   XKMajor=0   XKMinor=0   CmMajor=0   CmMinor=0   DbMajor=0   DbMinor=0   DsMajor=0   DsMinor=0   Rd=0   Ro=0   MaxAggSize=0
   Frame=772   DesignSect="Program Determined"   FrameType="Program Determined"   RLLF=0   XLMajor=0   XLMinor=0   XKMajor=0   XKMinor=0   CmMajor=0   CmMinor=0   DbMajor=0   DbMinor=0   DsMajor=0   DsMinor=0   Rd=0   Ro=0   MaxAggSize=0
   Frame=773   DesignSect="Program Determined"   FrameType="Program Determined"   RLLF=0   XLMajor=0   XLMinor=0   XKMajor=0   XKMinor=0   CmMajor=0   CmMinor=0   DbMajor=0   DbMinor=0   DsMajor=0   DsMinor=0   Rd=0   Ro=0   MaxAggSize=0
   Frame=774   DesignSect="Program Determined"   FrameType="Program Determined"   RLLF=0   XLMajor=0   XLMinor=0   XKMajor=0   XKMinor=0   CmMajor=0   CmMinor=0   DbMajor=0   DbMinor=0   DsMajor=0   DsMinor=0   Rd=0   Ro=0   MaxAggSize=0
   Frame=775   DesignSect="Program Determined"   FrameType="Program Determined"   RLLF=0   XLMajor=0   XLMinor=0   XKMajor=0   XKMinor=0   CmMajor=0   CmMinor=0   DbMajor=0   DbMinor=0   DsMajor=0   DsMinor=0   Rd=0   Ro=0   MaxAggSize=0
# ... 45 like lines cut
 
TABLE:  "PREFERENCES - ALUMINUM DESIGN - AA 2015"
   THDesign=Envelopes   SRatioLimit=1   Provision=ASD   LatFact=1.33333333333333   UseLatFact=No   Bridge=No   OmegaTy=1.65   OmegaTr=1.95   OmegaC=1.65   OmegaBo=1.65   OmegaBr=1.95   OmegaVo=1.65   OmegaVr=1.95
 
TABLE:  "PREFERENCES - COLD FORMED DESIGN - AISI-ASD96"
   THDesign=Envelopes   FrameType="Braced Frame"   SRatioLimit=1   MaxIter=1   OmegaBS=1.67   OmegaBUS=1.67   OmegaBLTB=1.67   OmegaVS=1.67   OmegaVNS=1.5   OmegaT=1.67   OmegaC=1.8
 
TABLE:  "PREFERENCES - CONCRETE DESIGN - CSA-A233-14"
   THDesign=Envelopes   NumCurves=24   NumPoints=11   MinEccen=Yes   BCCDesign=Yes   CTorsion=Yes   PatLLF=0.75   UFLimit=0.95   PhiS=0.85   PhiC=0.65
 
TABLE:  "PREFERENCES - CONCRETE SHELL DESIGN - EUROCODE 2-2004"
   Country="CEN Default"   GammaS=1.15   GammaC=1.5   AlphaCC=1
 
TABLE:  "PREFERENCES - DIMENSIONAL"
   MergeTol=0.001   FineGrid=0.25   Nudge=0.25   SelectTol=3   SnapTol=12   SLineThick=1   PLineThick=4   MaxFont=8   MinFont=3   AutoZoom=10   ShrinkFact=70   TextFileLen=240
 
TABLE:  "PREFERENCES - STEEL DESIGN - AISC 360-10"
   THDesign=Envelopes   FrameType=SMF   PatLLF=0.75   SRatioLimit=0.95   MaxIter=1   SDC=D   SeisCode=No   SeisLoad=No   ImpFactor=1   SystemRho=1   SystemSds=0.5   SystemR=8   SystemCd=5.5   Omega0=3   Provision=LRFD _
        AMethod="Direct Analysis"   SOMethod="General 2nd Order"   SRMethod="Tau-b Fixed"   NLCoeff=0.002   PhiB=0.9   PhiC=0.9   PhiTY=0.9   PhiTF=0.75   PhiV=0.9   PhiVRolledI=1   PhiVT=0.9   PlugWeld=Yes   HSSWelding=ERW   HSSReduceT=No _
        CheckDefl=No   DLRat=120   SDLAndLLRat=120   LLRat=360   TotalRat=240   NetRat=240
 
TABLE:  "PROGRAM CONTROL"
   ProgramName=SAP2000   Version=24.0.0   CurrUnits="Tonf, m, C"   SteelCode="AISC 360-10"   ConcCode="CSA A23.3-14"   AlumCode="AA 2015"   ColdCode=AISI-ASD96   RegenHinge=Yes
 
TABLE:  "PROJECT INFORMATION"
   Item="Company Name"   Data=po
   Item="Client Name"
   Item="Project Name"
   Item="Project Number"
   Item="Model Name"
   Item="Model Description"
   Item="Revision Number"
   Item="Frame Type"
   Item=Engineer
   Item=Checker
   Item=Supervisor
   Item="Issue Code"
   Item="Design Code"
 
TABLE:  "REBAR SIZES"
   RebarID=#2   Area=3.2258E-05   Diameter=0.00635
   RebarID=#3   Area=7.09675996154547E-05   Diameter=0.009525
   RebarID=#4   Area=0.000129032001922727   Diameter=0.0127
   RebarID=#5   Area=0.000199999601538181   Diameter=0.015875
   RebarID=#6   Area=0.000283870398461819   Diameter=0.01905
   RebarID=#7   Area=0.000387096015381813   Diameter=0.022225
   RebarID=#8   Area=0.000509676413843632   Diameter=0.0254
   RebarID=#9   Area=0.00064516   Diameter=0.0286512005329132
   RebarID=#10   Area=0.00081935318769455   Diameter=0.0322579995155334
   RebarID=#11   Area=0.00100644956308365   Diameter=0.0358139991521835
   RebarID=#14   Area=0.00145161   Diameter=0.0430021989583969
   RebarID=#18   Area=0.00258064   Diameter=0.0573277992248535
   RebarID=10M   Area=0.000100000004162606   Diameter=0.0113000003604438
   RebarID=15M   Area=0.000200000008325212   Diameter=0.0160000002402959
   RebarID=20M   Area=0.000300000012487818   Diameter=0.0195000002928606
   RebarID=25M   Area=0.000500000020813031   Diameter=0.0252000011414055
   RebarID=30M   Area=0.000700000029138243   Diameter=0.0299000000675832
   RebarID=35M   Area=0.00100000004162606   Diameter=0.0357000012990997
   RebarID=45M   Area=0.00150000006243909   Diameter=0.0437000014192476
   RebarID=55M   Area=0.00250000010406515   Diameter=0.056400002372922
   RebarID=6d   Area=2.83000004150781E-05   Diameter=0.00600000009011096
   RebarID=8d   Area=5.03000013308514E-05   Diameter=0.00800000012014795
   RebarID=10d   Area=7.85000032676458E-05   Diameter=0.0100000001501849
   RebarID=12d   Area=0.000113000004703745   Diameter=0.0120000001802219
   RebarID=14d   Area=0.000154000006410413   Diameter=0.0140000002102589
   RebarID=16d   Area=0.000201000008366838   Diameter=0.0160000002402959
   RebarID=20d   Area=0.000314000013070583   Diameter=0.0200000003003699
   RebarID=25d   Area=0.000491000020438396   Diameter=0.0250000003754623
   RebarID=26d   Area=0.000531000022103439   Diameter=0.0260000003904808
   RebarID=28d   Area=0.000616000025641654   Diameter=0.0280000004205178
   RebarID=N12   Area=0.000113000004703745   Diameter=0.0120000001802219
   RebarID=N16   Area=0.000201000008366838   Diameter=0.0160000002402959
   RebarID=N20   Area=0.000314000013070583   Diameter=0.0200000003003699
   RebarID=N24   Area=0.00045200001881498   Diameter=0.0240000003604438
   RebarID=N28   Area=0.000616000025641654   Diameter=0.0280000004205178
   RebarID=N32   Area=0.000804000033467353   Diameter=0.0320000004805918
   RebarID=N36   Area=0.00102000004245858   Diameter=0.0360000005406658
 
TABLE:  "SOLID PROPERTY DEFINITIONS"
   SolidProp=Solid1   Material=BTCT   MatAngleA=0   MatAngleB=0   MatAngleC=0   InComp=Yes   Color=Gray8Dark
 
END TABLE DATA
