File D:\ResearchLab\02_Projects\02_Projects\Tap chi XD_SFOA\code\SOO_MPJ\MPJ_Sap\SOO_Displacement_W02\MPJ_2.$2k was saved on m/d/yy at h:mm:ss
 
TABLE:  "ACTIVE DEGREES OF FREEDOM"
   UX=Yes   UY=Yes   UZ=Yes   RX=Yes   RY=Yes   RZ=Yes
 
TABLE:  "ANALYSIS OPTIONS"
   Solver=Advanced   SolverProc=Auto   Force32Bit=No   StiffCase=None   GeomMod=None   HingeOpt="In Elements"   NumAThreads=0   MaxFileSize=0   NumDThreads=0   NumRThreads=0   UseMMFiles="Program Determined"   AllowDiff=No
 
TABLE:  "AREA AUTO MESH ASSIGNMENTS"
   Area=320346   MeshType="Number of Elements"   MeshGroup=ALL   Number1=3   Number2=3   LocalEdge=No   LocalFace=No   SuppEdge=No   SuppFace=No   SubMesh=No
   Area=320347   MeshType="Number of Elements"   MeshGroup=ALL   Number1=3   Number2=3   LocalEdge=No   LocalFace=No   SuppEdge=No   SuppFace=No   SubMesh=No
   Area=320348   MeshType="Number of Elements"   MeshGroup=ALL   Number1=3   Number2=3   LocalEdge=No   LocalFace=No   SuppEdge=No   SuppFace=No   SubMesh=No
   Area=320349   MeshType="Number of Elements"   MeshGroup=ALL   Number1=3   Number2=3   LocalEdge=No   LocalFace=No   SuppEdge=No   SuppFace=No   SubMesh=No
   Area=320350   MeshType="Number of Elements"   MeshGroup=ALL   Number1=3   Number2=3   LocalEdge=No   LocalFace=No   SuppEdge=No   SuppFace=No   SubMesh=No
   Area=320351   MeshType="Number of Elements"   MeshGroup=ALL   Number1=3   Number2=3   LocalEdge=No   LocalFace=No   SuppEdge=No   SuppFace=No   SubMesh=No
   Area=320352   MeshType="Number of Elements"   MeshGroup=ALL   Number1=3   Number2=3   LocalEdge=No   LocalFace=No   SuppEdge=No   SuppFace=No   SubMesh=No
   Area=320353   MeshType="Number of Elements"   MeshGroup=ALL   Number1=3   Number2=3   LocalEdge=No   LocalFace=No   SuppEdge=No   SuppFace=No   SubMesh=No
   Area=320354   MeshType="Number of Elements"   MeshGroup=ALL   Number1=3   Number2=3   LocalEdge=No   LocalFace=No   SuppEdge=No   SuppFace=No   SubMesh=No
   Area=320355   MeshType="Number of Elements"   MeshGroup=ALL   Number1=3   Number2=3   LocalEdge=No   LocalFace=No   SuppEdge=No   SuppFace=No   SubMesh=No
   Area=320356   MeshType="Number of Elements"   MeshGroup=ALL   Number1=3   Number2=3   LocalEdge=No   LocalFace=No   SuppEdge=No   SuppFace=No   SubMesh=No
   Area=320357   MeshType="Number of Elements"   MeshGroup=ALL   Number1=3   Number2=3   LocalEdge=No   LocalFace=No   SuppEdge=No   SuppFace=No   SubMesh=No
   Area=320358   MeshType="Number of Elements"   MeshGroup=ALL   Number1=3   Number2=3   LocalEdge=No   LocalFace=No   SuppEdge=No   SuppFace=No   SubMesh=No
   Area=320359   MeshType="Number of Elements"   MeshGroup=ALL   Number1=3   Number2=3   LocalEdge=No   LocalFace=No   SuppEdge=No   SuppFace=No   SubMesh=No
   Area=320360   MeshType="Number of Elements"   MeshGroup=ALL   Number1=3   Number2=3   LocalEdge=No   LocalFace=No   SuppEdge=No   SuppFace=No   SubMesh=No
   Area=320361   MeshType="Number of Elements"   MeshGroup=ALL   Number1=3   Number2=3   LocalEdge=No   LocalFace=No   SuppEdge=No   SuppFace=No   SubMesh=No
   Area=320362   MeshType="Number of Elements"   MeshGroup=ALL   Number1=3   Number2=3   LocalEdge=No   LocalFace=No   SuppEdge=No   SuppFace=No   SubMesh=No
   Area=320363   MeshType="Number of Elements"   MeshGroup=ALL   Number1=3   Number2=3   LocalEdge=No   LocalFace=No   SuppEdge=No   SuppFace=No   SubMesh=No
   Area=320364   MeshType="Number of Elements"   MeshGroup=ALL   Number1=3   Number2=3   LocalEdge=No   LocalFace=No   SuppEdge=No   SuppFace=No   SubMesh=No
   Area=320365   MeshType="Number of Elements"   MeshGroup=ALL   Number1=3   Number2=3   LocalEdge=No   LocalFace=No   SuppEdge=No   SuppFace=No   SubMesh=No
# ... 20 like lines cut
 
TABLE:  "AREA LOADS - UNIFORM"
   Area=320346   LoadPat=LL   CoordSys=GLOBAL   Dir=Gravity   UnifLoad=1.00034158457019
   Area=320347   LoadPat=LL   CoordSys=GLOBAL   Dir=Gravity   UnifLoad=1.00034158457019
   Area=320348   LoadPat=LL   CoordSys=GLOBAL   Dir=Gravity   UnifLoad=1.00034158457019
   Area=320349   LoadPat=LL   CoordSys=GLOBAL   Dir=Gravity   UnifLoad=1.00034158457019
   Area=320350   LoadPat=LL   CoordSys=GLOBAL   Dir=Gravity   UnifLoad=1.00034158457019
   Area=320351   LoadPat=LL   CoordSys=GLOBAL   Dir=Gravity   UnifLoad=1.00034158457019
   Area=320352   LoadPat=LL   CoordSys=GLOBAL   Dir=Gravity   UnifLoad=1.00034158457019
   Area=320353   LoadPat=LL   CoordSys=GLOBAL   Dir=Gravity   UnifLoad=1.00034158457019
   Area=320354   LoadPat=LL   CoordSys=GLOBAL   Dir=Gravity   UnifLoad=1.00034158457019
   Area=320355   LoadPat=LL   CoordSys=GLOBAL   Dir=Gravity   UnifLoad=1.00034158457019
   Area=320356   LoadPat=LL   CoordSys=GLOBAL   Dir=Gravity   UnifLoad=1.00034158457019
   Area=320357   LoadPat=LL   CoordSys=GLOBAL   Dir=Gravity   UnifLoad=1.00034158457019
   Area=320358   LoadPat=LL   CoordSys=GLOBAL   Dir=Gravity   UnifLoad=1.00034158457019
   Area=320359   LoadPat=LL   CoordSys=GLOBAL   Dir=Gravity   UnifLoad=1.00034158457019
   Area=320360   LoadPat=LL   CoordSys=GLOBAL   Dir=Gravity   UnifLoad=1.00034158457019
   Area=320361   LoadPat=LL   CoordSys=GLOBAL   Dir=Gravity   UnifLoad=1.00034158457019
   Area=320362   LoadPat=LL   CoordSys=GLOBAL   Dir=Gravity   UnifLoad=1.00034158457019
   Area=320363   LoadPat=LL   CoordSys=GLOBAL   Dir=Gravity   UnifLoad=1.00034158457019
   Area=320364   LoadPat=LL   CoordSys=GLOBAL   Dir=Gravity   UnifLoad=1.00034158457019
   Area=320365   LoadPat=LL   CoordSys=GLOBAL   Dir=Gravity   UnifLoad=1.00034158457019
# ... 20 like lines cut
 
TABLE:  "AREA SECTION ASSIGNMENTS"
   Area=320346   Section=Deck   MatProp=Default
   Area=320347   Section=Deck   MatProp=Default
   Area=320348   Section=Deck   MatProp=Default
   Area=320349   Section=Deck   MatProp=Default
   Area=320350   Section=Deck   MatProp=Default
   Area=320351   Section=Deck   MatProp=Default
   Area=320352   Section=Deck   MatProp=Default
   Area=320353   Section=Deck   MatProp=Default
   Area=320354   Section=Deck   MatProp=Default
   Area=320355   Section=Deck   MatProp=Default
   Area=320356   Section=Deck   MatProp=Default
   Area=320357   Section=Deck   MatProp=Default
   Area=320358   Section=Deck   MatProp=Default
   Area=320359   Section=Deck   MatProp=Default
   Area=320360   Section=Deck   MatProp=Default
   Area=320361   Section=Deck   MatProp=Default
   Area=320362   Section=Deck   MatProp=Default
   Area=320363   Section=Deck   MatProp=Default
   Area=320364   Section=Deck   MatProp=Default
   Area=320365   Section=Deck   MatProp=Default
# ... 20 like lines cut
 
TABLE:  "AREA SECTION PROPERTIES"
   Section=Deck   Material=BTCT   MatAngle=0   AreaType=Shell   Type=Shell-Thin   DrillDOF=Yes   Thickness=0.3   BendThick=0.3   Color=Green   F11Mod=1   F22Mod=1   F12Mod=1   M11Mod=1   M22Mod=1   M12Mod=1   V13Mod=1   V23Mod=1   MMod=1 _
        WMod=1   Notes="Added 24-Feb-23 16:56:47"
 
TABLE:  "AREA SECTION PROPERTY DESIGN PARAMETERS"
   Section=Deck   RebarMat=None   RebarOpt=Default
 
TABLE:  "AREA SECTION PROPERTY - TIME DEPENDENT"
   Section=Deck   TypeSize=User   AutoSFSize=1   UserValSize=0.1
 
TABLE:  "AUTO COMBINATION OPTION DATA 01 - GENERAL"
   DesignType=Concrete   AutoGen=Yes
 
TABLE:  "AUTO COMBINATION OPTION DATA 02 - USER DATA"
   DesignType=Concrete   LSType=Strength   LCName=DEAD
   DesignType=Concrete   LSType=Strength   LCName=LL
 
TABLE:  "AUTO WAVE 3 - WAVE CHARACTERISTICS - GENERAL"
   WaveChar=Default   WaveType="From Theory"   KinFactor=1   SWaterDepth=45   WaveHeight=18   WavePeriod=12   WaveTheory=Linear
 
TABLE:  "CASE - MODAL 1 - GENERAL"
   Case=MODAL   ModeType=Eigen   MaxNumModes=12   MinNumModes=1   EigenShift=0   EigenCutoff=0   EigenTol=1E-09   AutoShift=Yes
 
TABLE:  "CASE - STATIC 1 - LOAD ASSIGNMENTS"
   Case=DEAD   LoadType="Load pattern"   LoadName=DEAD   LoadSF=1
   Case=LL   LoadType="Load pattern"   LoadName=LL   LoadSF=1
 
TABLE:  "COMBINATION DEFINITIONS"
   ComboName=COMB1   ComboType="Linear Add"   AutoDesign=No   CaseName=DEAD   ScaleFactor=1   SteelDesign=None   ConcDesign=Strength   AlumDesign=None   ColdDesign=None
   ComboName=COMB2   ComboType="Linear Add"   AutoDesign=No   CaseName=DEAD   ScaleFactor=1   SteelDesign=None   ConcDesign=Strength   AlumDesign=None   ColdDesign=None
   ComboName=COMB2   CaseName=LL   ScaleFactor=1
   ComboName=BAO   ComboType=Envelope   AutoDesign=No   CaseName=COMB1   ScaleFactor=1   SteelDesign=None   ConcDesign=Strength   AlumDesign=None   ColdDesign=None
   ComboName=BAO   CaseName=COMB2   ScaleFactor=1
   ComboName=DCON1   ComboType="Linear Add"   AutoDesign=Yes   CaseName=DEAD   ScaleFactor=1.4   SteelDesign=None   ConcDesign=Strength   AlumDesign=None   ColdDesign=None   GUID=bb4fff9a-98b5-44d1-9fde-34d92700a8e9   Notes="Dead Only; Strength"
   ComboName=DCON2   ComboType="Linear Add"   AutoDesign=Yes   CaseName=DEAD   ScaleFactor=1.25   SteelDesign=None   ConcDesign=Strength   AlumDesign=None   ColdDesign=None   GUID=505bcda7-6fac-4dd0-b03e-c591d1ffc6ce   Notes="Dead + Live; Strength"
   ComboName=DCON2   CaseName=LL   ScaleFactor=1.5
 
TABLE:  "CONNECTIVITY - AREA"
   Area=320346   Joint1=937141   Joint2=937070   Joint3=937029   Joint4=937028   GUID=d78ad951-da23-4635-8690-db22d6ff97b5
   Area=320347   Joint1=937028   Joint2=937029   Joint3=937031   Joint4=937030   GUID=89c56da5-04f9-4ba6-a4e4-6ec4bb504c3e
   Area=320348   Joint1=937030   Joint2=937031   Joint3=937033   Joint4=937032   GUID=67e6ef78-1036-4b24-a05d-b8f32d7f8e29
   Area=320349   Joint1=937032   Joint2=937033   Joint3=937035   Joint4=937034   GUID=b598136c-1f56-4283-a91b-7fd487b2dd80
   Area=320350   Joint1=937034   Joint2=937035   Joint3=937037   Joint4=937036   GUID=8eae9427-277b-44e1-bf12-28a3e34a531e
   Area=320351   Joint1=937036   Joint2=937037   Joint3=937039   Joint4=937038   GUID=871df4fa-1390-4cbb-ad3e-342b81c263b3
   Area=320352   Joint1=937038   Joint2=937039   Joint3=937041   Joint4=937040   GUID=d432e2c2-b966-4414-b8bc-e25f30bb1c2d
   Area=320353   Joint1=937040   Joint2=937041   Joint3=937074   Joint4=937142   GUID=6d8dcbd7-b86d-4101-87d4-4b624dff39c0
   Area=320354   Joint1=937070   Joint2=937071   Joint3=937042   Joint4=937029   GUID=4b717cd9-69c1-45e9-b499-74163218884a
   Area=320355   Joint1=937029   Joint2=937042   Joint3=937043   Joint4=937031   GUID=34b17359-0e65-4b74-bc74-2d8664532461
   Area=320356   Joint1=937031   Joint2=937043   Joint3=937044   Joint4=937033   GUID=b062416d-4c9e-4b80-84ba-c930fc07a5d3
   Area=320357   Joint1=937033   Joint2=937044   Joint3=937045   Joint4=937035   GUID=09f97adb-a9b8-46e4-bf64-b538c2439c03
   Area=320358   Joint1=937035   Joint2=937045   Joint3=937046   Joint4=937037   GUID=a3e8804f-999e-42b2-8012-6d9b9febe052
   Area=320359   Joint1=937037   Joint2=937046   Joint3=937047   Joint4=937039   GUID=e3f433e1-4f0f-46c5-851f-4023064026e7
   Area=320360   Joint1=937039   Joint2=937047   Joint3=937048   Joint4=937041   GUID=d50416a0-ec0f-428a-9c93-e4cf07c4fba1
   Area=320361   Joint1=937041   Joint2=937048   Joint3=937075   Joint4=937074   GUID=0e5175de-9ffe-44da-a6f0-ba94399ddbef
   Area=320362   Joint1=937071   Joint2=937072   Joint3=937049   Joint4=937042   GUID=4a9fc514-a95b-41b1-a8eb-9d66802b6bec
   Area=320363   Joint1=937042   Joint2=937049   Joint3=937050   Joint4=937043   GUID=0cc06abc-2e8e-4e61-a5bb-03a41635fb13
   Area=320364   Joint1=937043   Joint2=937050   Joint3=937051   Joint4=937044   GUID=e78cb714-5fa6-40f4-8536-9fb2da478f8e
   Area=320365   Joint1=937044   Joint2=937051   Joint3=937052   Joint4=937045   GUID=757d6aa8-68f9-4a24-9c8a-91a928aae7e7
   Area=320366   Joint1=937045   Joint2=937052   Joint3=937053   Joint4=937046   GUID=fd718313-2962-4b8e-866b-24d45ff9e309
   Area=320367   Joint1=937046   Joint2=937053   Joint3=937054   Joint4=937047   GUID=77cce231-1d97-488f-8cca-61e08aa585b2
   Area=320368   Joint1=937047   Joint2=937054   Joint3=937055   Joint4=937048   GUID=11d4b46d-7369-4b81-a86f-1049d600d89d
   Area=320369   Joint1=937048   Joint2=937055   Joint3=937076   Joint4=937075   GUID=2f8deef2-334b-4efa-9a5d-85483d8ba3ac
   Area=320370   Joint1=937072   Joint2=937073   Joint3=937056   Joint4=937049   GUID=2f27e6e4-4a86-4059-a514-b30bc2b5d759
   Area=320371   Joint1=937049   Joint2=937056   Joint3=937057   Joint4=937050   GUID=7d5bfcb0-c843-4f6c-a6b5-50127062a8d9
   Area=320372   Joint1=937050   Joint2=937057   Joint3=937058   Joint4=937051   GUID=468e79a7-d135-4ed9-af69-f90eafa56eab
   Area=320373   Joint1=937051   Joint2=937058   Joint3=937059   Joint4=937052   GUID=6035aa18-da46-4db5-b3df-4384e8861374
   Area=320374   Joint1=937052   Joint2=937059   Joint3=937060   Joint4=937053   GUID=d5b1b2d6-a35b-4816-b27b-a8a42dae0b9b
   Area=320375   Joint1=937053   Joint2=937060   Joint3=937061   Joint4=937054   GUID=282dd17c-e9aa-43d2-a8ee-30313453639d
   Area=320376   Joint1=937054   Joint2=937061   Joint3=937062   Joint4=937055   GUID=8ea593d2-2197-4c99-8b27-11a36d57a974
   Area=320377   Joint1=937055   Joint2=937062   Joint3=937077   Joint4=937076   GUID=8d3efd2f-006e-41af-83b8-957dcddd7983
   Area=320378   Joint1=937073   Joint2=937143   Joint3=937063   Joint4=937056   GUID=86d4e686-aab6-412b-8623-d6a8fbfdd5b8
   Area=320379   Joint1=937056   Joint2=937063   Joint3=937064   Joint4=937057   GUID=2228f383-8ea6-4abb-9a31-cac6a782ce42
   Area=320380   Joint1=937057   Joint2=937064   Joint3=937065   Joint4=937058   GUID=cfa3856f-af86-41e5-ae7e-65c8616fb9f2
   Area=320381   Joint1=937058   Joint2=937065   Joint3=937066   Joint4=937059   GUID=e375aeea-26f0-4f02-a6cd-d5a157b9078b
   Area=320382   Joint1=937059   Joint2=937066   Joint3=937067   Joint4=937060   GUID=afa99a1c-9f5a-4aff-9629-f7eb37c51d3e
   Area=320383   Joint1=937060   Joint2=937067   Joint3=937068   Joint4=937061   GUID=615c7b85-c2d7-4397-b7eb-450bed19af3a
   Area=320384   Joint1=937061   Joint2=937068   Joint3=937069   Joint4=937062   GUID=774fbbf0-91e7-450e-ad77-bbe077c6c46b
   Area=320385   Joint1=937062   Joint2=937069   Joint3=937144   Joint4=937077   GUID=12ef9700-93fa-41d2-be56-6953ef4301a0
 
TABLE:  "CONNECTIVITY - FRAME"
   Frame=1086759   JointI=937028   JointJ=937029   IsCurved=No   GUID=9cdd57fc-21ac-441f-b329-8f376860e326
   Frame=1086760   JointI=937030   JointJ=937031   IsCurved=No   GUID=081755c5-8c31-4567-a160-70eff8710320
   Frame=1086761   JointI=937032   JointJ=937033   IsCurved=No   GUID=84c6814c-6f1f-49e6-b047-f0840362a109
   Frame=1086762   JointI=937034   JointJ=937035   IsCurved=No   GUID=1bf3c57d-2fdf-4893-8599-73943a933db8
   Frame=1086763   JointI=937036   JointJ=937037   IsCurved=No   GUID=0c422740-26c0-44e1-8d41-e083b7d3b0c8
   Frame=1086764   JointI=937038   JointJ=937039   IsCurved=No   GUID=fb2f2c4f-19ce-4fd1-b939-892072d78d2c
   Frame=1086765   JointI=937040   JointJ=937041   IsCurved=No   GUID=a96c2a91-fe99-4dad-8ae3-2f71a1aa5637
   Frame=1086766   JointI=937029   JointJ=937042   IsCurved=No   GUID=2549e960-df5c-4d8b-be24-530e1a782ced
   Frame=1086767   JointI=937031   JointJ=937043   IsCurved=No   GUID=6438ef4d-e733-45fd-8c95-f913e1bc2ee1
   Frame=1086768   JointI=937033   JointJ=937044   IsCurved=No   GUID=1bb7dbc7-c3d7-4e99-ac1a-a73323f563bb
   Frame=1086769   JointI=937035   JointJ=937045   IsCurved=No   GUID=432f75c8-251b-43af-a63f-4edb7e2e4ad4
   Frame=1086770   JointI=937037   JointJ=937046   IsCurved=No   GUID=2f641cf8-852a-4d81-a4ae-e1869bd7f7c8
   Frame=1086771   JointI=937039   JointJ=937047   IsCurved=No   GUID=8d549da7-6470-4e19-a51b-e5c3339822ec
   Frame=1086772   JointI=937041   JointJ=937048   IsCurved=No   GUID=a3c5c4a2-82dc-4824-847f-f281dec3127c
   Frame=1086773   JointI=937042   JointJ=937049   IsCurved=No   GUID=70189533-6fe7-4cfd-9214-078c5b91e3ef
   Frame=1086774   JointI=937043   JointJ=937050   IsCurved=No   GUID=09165394-a111-48b1-a51c-42c0a477b395
   Frame=1086775   JointI=937044   JointJ=937051   IsCurved=No   GUID=c0504a01-b257-4226-bda2-2507e2d5c8ad
   Frame=1086776   JointI=937045   JointJ=937052   IsCurved=No   GUID=77c65c46-33a7-4907-9709-91802f3361a0
   Frame=1086777   JointI=937046   JointJ=937053   IsCurved=No   GUID=ba6652db-3bd4-433c-b7ff-245a4c81ccaf
   Frame=1086778   JointI=937047   JointJ=937054   IsCurved=No   GUID=48513df8-ff2f-4dcc-95b5-5c9568659fc2
   Frame=1086779   JointI=937048   JointJ=937055   IsCurved=No   GUID=74db3038-0f73-4601-9e74-d2a2898a16cb
   Frame=1086780   JointI=937049   JointJ=937056   IsCurved=No   GUID=04358233-5cef-4783-a6d0-47ac7f82f500
   Frame=1086781   JointI=937050   JointJ=937057   IsCurved=No   GUID=d7588f06-6af3-4fbf-876a-e0970b4cb423
   Frame=1086782   JointI=937051   JointJ=937058   IsCurved=No   GUID=36d711f4-676c-4dfb-a771-4e896979160b
   Frame=1086783   JointI=937052   JointJ=937059   IsCurved=No   GUID=bb3fb9eb-9771-4721-95a4-efec7799d016
   Frame=1086784   JointI=937053   JointJ=937060   IsCurved=No   GUID=a0d971be-3518-4f5e-9023-083560ad0171
   Frame=1086785   JointI=937054   JointJ=937061   IsCurved=No   GUID=26ce79c0-fc3d-4223-8eb5-f4b023d7b30d
   Frame=1086786   JointI=937055   JointJ=937062   IsCurved=No   GUID=c16a1887-b8a0-459c-a9c8-0f40c0af70f2
   Frame=1086787   JointI=937056   JointJ=937063   IsCurved=No   GUID=56f97aba-437b-48ac-a1a5-df6cd6544b7f
   Frame=1086788   JointI=937057   JointJ=937064   IsCurved=No   GUID=f0188e90-7841-407d-b535-ae774199c38d
   Frame=1086789   JointI=937058   JointJ=937065   IsCurved=No   GUID=7afaa0bf-22a2-49c1-8c04-d4ca7072ba04
   Frame=1086790   JointI=937059   JointJ=937066   IsCurved=No   GUID=e678c88c-473c-4ed1-aebb-1d2abdee2540
   Frame=1086791   JointI=937060   JointJ=937067   IsCurved=No   GUID=9fa4e390-6e00-4875-aea4-449206970dcc
   Frame=1086792   JointI=937061   JointJ=937068   IsCurved=No   GUID=f3aa7ef3-0d9c-4535-9164-4ec9c8ee3660
   Frame=1086793   JointI=937062   JointJ=937069   IsCurved=No   GUID=2668c3d4-e6a4-4466-a02a-ea37e25f0a03
   Frame=1086794   JointI=937070   JointJ=937029   IsCurved=No   GUID=972e6d90-ea45-4a94-9ea6-2da2b0f582a6
   Frame=1086795   JointI=937071   JointJ=937042   IsCurved=No   GUID=81c15db6-60b3-4c65-a3b6-170497f64130
   Frame=1086796   JointI=937072   JointJ=937049   IsCurved=No   GUID=08b71c67-4aa4-43f9-8ccd-6a00b5f215d9
   Frame=1086797   JointI=937073   JointJ=937056   IsCurved=No   GUID=530abe6e-0c7a-493c-bc7e-31485bbccb14
   Frame=1086798   JointI=937029   JointJ=937031   IsCurved=No   GUID=74264369-f3ca-4267-bb68-c31c37f6dd8e
   Frame=1086799   JointI=937042   JointJ=937043   IsCurved=No   GUID=0bb9d0ea-e66a-4114-9726-7437091838b0
   Frame=1086800   JointI=937049   JointJ=937050   IsCurved=No   GUID=a5f0aba8-1a77-4eb3-9564-a74253bc1384
   Frame=1086801   JointI=937056   JointJ=937057   IsCurved=No   GUID=6e17a85c-dcd0-4ae8-8055-c50d4004fd76
   Frame=1086802   JointI=937031   JointJ=937033   IsCurved=No   GUID=b9c0ec60-551e-4232-80fc-3498d7536b3b
   Frame=1086803   JointI=937043   JointJ=937044   IsCurved=No   GUID=8bd04e07-ab1f-48a8-8f9d-dc2b6229fb7a
   Frame=1086804   JointI=937050   JointJ=937051   IsCurved=No   GUID=94eceabb-4b64-4166-9b7a-33ffbd6aabb8
   Frame=1086805   JointI=937057   JointJ=937058   IsCurved=No   GUID=413d6ff4-5f6f-4755-8435-9261da90feca
   Frame=1086806   JointI=937033   JointJ=937035   IsCurved=No   GUID=88aded44-8e92-4021-bfdf-2648306b59f2
   Frame=1086807   JointI=937044   JointJ=937045   IsCurved=No   GUID=2a9f4806-82bd-4afc-b16f-d1dee33b5c0a
   Frame=1086808   JointI=937051   JointJ=937052   IsCurved=No   GUID=81982d43-c6bd-4471-9b98-c451bc3cec36
   Frame=1086809   JointI=937058   JointJ=937059   IsCurved=No   GUID=16e716f3-0bc6-45ec-9683-30fadfdc63f5
   Frame=1086810   JointI=937035   JointJ=937037   IsCurved=No   GUID=770ad5e5-6600-43f3-91ed-bb87de44b1a4
   Frame=1086811   JointI=937045   JointJ=937046   IsCurved=No   GUID=568e2ed6-92b2-4b25-9c80-9badd830cc35
   Frame=1086812   JointI=937052   JointJ=937053   IsCurved=No   GUID=d66e7d3e-fce9-4f1f-b26d-835278d011e8
   Frame=1086813   JointI=937059   JointJ=937060   IsCurved=No   GUID=e4888cf5-d3e7-4f24-842d-94248e9e3ca1
   Frame=1086814   JointI=937037   JointJ=937039   IsCurved=No   GUID=d4adb33e-1e5e-4314-a4ee-9ab5177a846c
   Frame=1086815   JointI=937046   JointJ=937047   IsCurved=No   GUID=58011c1a-1c3c-4766-ab07-5df180ecfda8
   Frame=1086816   JointI=937053   JointJ=937054   IsCurved=No   GUID=ebb3c160-cbcc-42b5-94c2-e3dc41de8906
   Frame=1086817   JointI=937060   JointJ=937061   IsCurved=No   GUID=885712cc-9f5a-4958-8e29-ffd8aecb8d60
   Frame=1086818   JointI=937039   JointJ=937041   IsCurved=No   GUID=cfec19c2-8e1e-42a5-9050-acc26e5ff2d2
   Frame=1086819   JointI=937047   JointJ=937048   IsCurved=No   GUID=6e6837c6-e40b-44ad-acdb-8894965f89b1
   Frame=1086820   JointI=937054   JointJ=937055   IsCurved=No   GUID=91caff21-ab88-43bf-97d9-ed60deeedb1a
   Frame=1086821   JointI=937061   JointJ=937062   IsCurved=No   GUID=b5ff5158-37c9-417b-b903-7058ea68a329
   Frame=1086822   JointI=937041   JointJ=937074   IsCurved=No   GUID=ed3626b9-9f68-4a1f-9e7b-54af11feb99a
   Frame=1086823   JointI=937048   JointJ=937075   IsCurved=No   GUID=0a523086-6f13-4544-b7bf-380417c399a8
   Frame=1086824   JointI=937055   JointJ=937076   IsCurved=No   GUID=11908dc4-e77f-4ae7-bb2b-24386b807db6
   Frame=1086825   JointI=937062   JointJ=937077   IsCurved=No   GUID=f8ed81b5-f13f-4985-be37-2d5f5d2bc839
   Frame=1086826   JointI=937029   JointJ=937078   IsCurved=No   GUID=9806cc7c-041a-4604-aeb2-9433c77b1231
   Frame=1086827   JointI=937078   JointJ=937079   IsCurved=No   GUID=af1d54a9-3691-4fc2-903e-87c0b0b0196f
   Frame=1086828   JointI=937079   JointJ=937080   IsCurved=No   GUID=7504f5ee-f0d5-453f-9086-faa68baaf8c5
   Frame=1086829   JointI=937031   JointJ=937081   IsCurved=No   GUID=81e18e6c-aea9-48c0-a8c4-bbdf120d4a78
   Frame=1086830   JointI=937081   JointJ=937082   IsCurved=No   GUID=84fb91e8-bafb-4bff-8fe1-8edd0ef08bd7
   Frame=1086831   JointI=937082   JointJ=937083   IsCurved=No   GUID=b97074b9-2c90-47bf-9e39-f4ddb6635470
   Frame=1086832   JointI=937033   JointJ=937084   IsCurved=No   GUID=d0481bb6-a2ba-477a-b1a2-81b560315bd2
   Frame=1086833   JointI=937084   JointJ=937085   IsCurved=No   GUID=80d4abaf-6a5c-4561-a5e8-375908a97f74
   Frame=1086834   JointI=937085   JointJ=937086   IsCurved=No   GUID=7319d08e-156e-420e-8560-dac4558325c4
   Frame=1086835   JointI=937035   JointJ=937087   IsCurved=No   GUID=44b2ed6c-e094-43e7-a3e8-6c2a46d6d572
   Frame=1086836   JointI=937087   JointJ=937088   IsCurved=No   GUID=ff97f496-1d6d-4711-a602-115cb84b89f3
   Frame=1086837   JointI=937088   JointJ=937089   IsCurved=No   GUID=ef8041f1-e71c-4ec0-a775-4136bccb526b
   Frame=1086838   JointI=937037   JointJ=937090   IsCurved=No   GUID=5ae2ef04-89a2-405e-9d4d-708b22af83a3
   Frame=1086839   JointI=937090   JointJ=937091   IsCurved=No   GUID=43f20c7c-417d-4173-a224-22794342bdb9
   Frame=1086840   JointI=937091   JointJ=937092   IsCurved=No   GUID=f996ca73-68ff-449d-83a9-5ebc9f5106e4
   Frame=1086841   JointI=937039   JointJ=937093   IsCurved=No   GUID=f3526597-6711-4db5-b76a-e851d2046a3c
   Frame=1086842   JointI=937093   JointJ=937094   IsCurved=No   GUID=61242ec9-db33-4f22-a939-9523ba8603da
   Frame=1086843   JointI=937094   JointJ=937095   IsCurved=No   GUID=1a77b17c-0fb5-45a5-a4a7-944fcd0a1af9
   Frame=1086844   JointI=937041   JointJ=937096   IsCurved=No   GUID=02780653-40c6-4b4f-89e7-02f79dd9ac5a
   Frame=1086845   JointI=937096   JointJ=937097   IsCurved=No   GUID=42ec6531-48d7-441d-b34f-0683bc9fa643
   Frame=1086846   JointI=937097   JointJ=937098   IsCurved=No   GUID=59b34273-2c2a-439e-999b-7ff504f58e23
   Frame=1086847   JointI=937042   JointJ=937099   IsCurved=No   GUID=b318d24c-6cd6-42e3-8702-b11b306ab8c5
   Frame=1086848   JointI=937099   JointJ=937100   IsCurved=No   GUID=6fffedb4-0b37-431a-bb6e-ab7b72d7eb03
   Frame=1086849   JointI=937043   JointJ=937101   IsCurved=No   GUID=f39cc0d8-3346-4a37-8782-d878b7e082b6
   Frame=1086850   JointI=937101   JointJ=937102   IsCurved=No   GUID=d017a624-6d74-4deb-849e-c2a8b00bebc2
   Frame=1086851   JointI=937044   JointJ=937103   IsCurved=No   GUID=b73c57b2-8a0c-4266-bd66-b9110dc96bb6
   Frame=1086852   JointI=937103   JointJ=937104   IsCurved=No   GUID=aa751ebd-35f3-4778-8b9b-9d0c20059881
   Frame=1086853   JointI=937045   JointJ=937105   IsCurved=No   GUID=0ec8ccb1-486c-4b8c-95e4-12cb0a36cf4e
   Frame=1086854   JointI=937105   JointJ=937106   IsCurved=No   GUID=cfe6a0c6-b871-4f8d-8b92-7d48d9ff8b14
   Frame=1086855   JointI=937046   JointJ=937107   IsCurved=No   GUID=f948803f-db94-4577-921d-b38a95256b4d
   Frame=1086856   JointI=937107   JointJ=937108   IsCurved=No   GUID=1c3e1c63-d35b-4b86-8caf-43cfe0edf86c
   Frame=1086857   JointI=937047   JointJ=937109   IsCurved=No   GUID=c1eedee1-dfcd-4baa-91a2-b7ab05ec2dc9
   Frame=1086858   JointI=937109   JointJ=937110   IsCurved=No   GUID=03093a3e-47ef-4d87-b3da-beb9465d24d4
   Frame=1086859   JointI=937048   JointJ=937111   IsCurved=No   GUID=6b4995e5-e120-4e2d-90e4-4f5d03e3f364
   Frame=1086860   JointI=937111   JointJ=937112   IsCurved=No   GUID=3fdf819c-26ac-4e94-8a45-9c3b86807b60
   Frame=1086861   JointI=937049   JointJ=937113   IsCurved=No   GUID=17bbd415-04bf-46d6-b013-5301ba270d15
   Frame=1086862   JointI=937113   JointJ=937114   IsCurved=No   GUID=ed0aa82b-6e7c-41fe-9c1c-393d21ae4a79
   Frame=1086863   JointI=937050   JointJ=937115   IsCurved=No   GUID=6d8d568b-1f77-4462-b2fb-106c4d5e2c02
   Frame=1086864   JointI=937115   JointJ=937116   IsCurved=No   GUID=b458ffa4-a927-4a4f-8c0f-affe01f427c3
   Frame=1086865   JointI=937051   JointJ=937117   IsCurved=No   GUID=e4b90b6c-c989-4297-a6f4-7039c57a48d3
   Frame=1086866   JointI=937117   JointJ=937118   IsCurved=No   GUID=cdf197d1-3406-4550-a924-53def41bf3a6
   Frame=1086867   JointI=937052   JointJ=937119   IsCurved=No   GUID=ee8d5cce-893a-49d3-83ad-504086caa4e3
   Frame=1086868   JointI=937119   JointJ=937120   IsCurved=No   GUID=092f2978-d677-483c-863f-19dd1480d9bf
   Frame=1086869   JointI=937053   JointJ=937121   IsCurved=No   GUID=73fa813e-b512-4910-9d20-0cd9dc316902
   Frame=1086870   JointI=937121   JointJ=937122   IsCurved=No   GUID=916b4434-72b5-4fae-a500-9a9be4e78238
   Frame=1086871   JointI=937054   JointJ=937123   IsCurved=No   GUID=93a21ba5-53a4-400d-8606-b703e2f94266
   Frame=1086872   JointI=937123   JointJ=937124   IsCurved=No   GUID=50ab46c8-ee69-4c0f-934f-83c0952b68d2
   Frame=1086873   JointI=937055   JointJ=937125   IsCurved=No   GUID=4342d9fb-48c3-4352-b10a-505e8072d8cf
   Frame=1086874   JointI=937125   JointJ=937126   IsCurved=No   GUID=bcfc4a18-1003-494a-a583-7d65e5b7e386
   Frame=1086875   JointI=937056   JointJ=937127   IsCurved=No   GUID=a4527c88-dab0-4331-9b76-aedff8b331d9
   Frame=1086876   JointI=937127   JointJ=937128   IsCurved=No   GUID=7629d94e-853b-4827-a5db-c5731dda98be
   Frame=1086877   JointI=937057   JointJ=937129   IsCurved=No   GUID=f06be447-efee-4cc2-b01a-11bd99559a49
   Frame=1086878   JointI=937129   JointJ=937130   IsCurved=No   GUID=a8ff758a-448e-4deb-99bb-dd36cf602bb6
   Frame=1086879   JointI=937058   JointJ=937131   IsCurved=No   GUID=88fdbf3c-0a5a-4e5e-9bd8-1973f3165ac0
   Frame=1086880   JointI=937131   JointJ=937132   IsCurved=No   GUID=692942d1-2dd9-4abc-8ef0-eb5c849b6fbe
   Frame=1086881   JointI=937059   JointJ=937133   IsCurved=No   GUID=8cf6894e-95b7-4144-b26d-b38bf82e0fb3
   Frame=1086882   JointI=937133   JointJ=937134   IsCurved=No   GUID=cd5b3407-5572-4480-ac4b-9f885662cf85
   Frame=1086883   JointI=937060   JointJ=937135   IsCurved=No   GUID=7101f524-8d9b-424e-be75-6ab1ced8925f
   Frame=1086884   JointI=937135   JointJ=937136   IsCurved=No   GUID=e7f3d97b-1551-4a9c-a059-8e57391376fa
   Frame=1086885   JointI=937061   JointJ=937137   IsCurved=No   GUID=a9da7445-56c3-44a5-80bd-158638522d65
   Frame=1086886   JointI=937137   JointJ=937138   IsCurved=No   GUID=8bc9eef5-2b19-4707-8b09-1ad0f054f5dd
   Frame=1086887   JointI=937062   JointJ=937139   IsCurved=No   GUID=62c1c38c-4f2e-4c96-aae5-ce3880d6ce0d
   Frame=1086888   JointI=937139   JointJ=937140   IsCurved=No   GUID=0c0b7b86-bd9f-45de-8663-490d9586a629
   Frame=1086889   JointI=937078   JointJ=937081   IsCurved=No   GUID=9edd2a04-323e-47b8-9a68-25e93d61421f
   Frame=1086890   JointI=937081   JointJ=937084   IsCurved=No   GUID=27192bfc-59d5-4a9f-afb7-30bbb72e9566
   Frame=1086891   JointI=937084   JointJ=937087   IsCurved=No   GUID=ac9ee46a-e7df-4952-9b18-b7976fd8fc82
   Frame=1086892   JointI=937087   JointJ=937090   IsCurved=No   GUID=76ef99e0-b9f7-4e7e-8edd-63697afcdff0
   Frame=1086893   JointI=937090   JointJ=937093   IsCurved=No   GUID=1a70e557-6695-44dd-ae5b-96bac4597135
   Frame=1086894   JointI=937093   JointJ=937096   IsCurved=No   GUID=8cbd6766-6615-4618-9e87-ce4fdab3f034
 
TABLE:  "COORDINATE SYSTEMS"
   Name=GLOBAL   Type=Cartesian   X=0   Y=0   Z=0   AboutZ=0   AboutY=0   AboutX=0
 
TABLE:  "DATABASE DOCUMENTATION"
 
TABLE:  "DATABASE FORMAT TYPES"
   UnitsCurr=Yes   OverrideE=No
 
TABLE:  "FRAME AUTO MESH ASSIGNMENTS"
   Frame=1086759   AutoMesh=Yes   AtJoints=Yes   AtFrames=No   NumSegments=0   MaxLength=0   MaxDegrees=0
   Frame=1086760   AutoMesh=Yes   AtJoints=Yes   AtFrames=No   NumSegments=0   MaxLength=0   MaxDegrees=0
   Frame=1086761   AutoMesh=Yes   AtJoints=Yes   AtFrames=No   NumSegments=0   MaxLength=0   MaxDegrees=0
   Frame=1086762   AutoMesh=Yes   AtJoints=Yes   AtFrames=No   NumSegments=0   MaxLength=0   MaxDegrees=0
   Frame=1086763   AutoMesh=Yes   AtJoints=Yes   AtFrames=No   NumSegments=0   MaxLength=0   MaxDegrees=0
   Frame=1086764   AutoMesh=Yes   AtJoints=Yes   AtFrames=No   NumSegments=0   MaxLength=0   MaxDegrees=0
   Frame=1086765   AutoMesh=Yes   AtJoints=Yes   AtFrames=No   NumSegments=0   MaxLength=0   MaxDegrees=0
   Frame=1086766   AutoMesh=Yes   AtJoints=Yes   AtFrames=No   NumSegments=0   MaxLength=0   MaxDegrees=0
   Frame=1086767   AutoMesh=Yes   AtJoints=Yes   AtFrames=No   NumSegments=0   MaxLength=0   MaxDegrees=0
   Frame=1086768   AutoMesh=Yes   AtJoints=Yes   AtFrames=No   NumSegments=0   MaxLength=0   MaxDegrees=0
   Frame=1086769   AutoMesh=Yes   AtJoints=Yes   AtFrames=No   NumSegments=0   MaxLength=0   MaxDegrees=0
   Frame=1086770   AutoMesh=Yes   AtJoints=Yes   AtFrames=No   NumSegments=0   MaxLength=0   MaxDegrees=0
   Frame=1086771   AutoMesh=Yes   AtJoints=Yes   AtFrames=No   NumSegments=0   MaxLength=0   MaxDegrees=0
   Frame=1086772   AutoMesh=Yes   AtJoints=Yes   AtFrames=No   NumSegments=0   MaxLength=0   MaxDegrees=0
   Frame=1086773   AutoMesh=Yes   AtJoints=Yes   AtFrames=No   NumSegments=0   MaxLength=0   MaxDegrees=0
   Frame=1086774   AutoMesh=Yes   AtJoints=Yes   AtFrames=No   NumSegments=0   MaxLength=0   MaxDegrees=0
   Frame=1086775   AutoMesh=Yes   AtJoints=Yes   AtFrames=No   NumSegments=0   MaxLength=0   MaxDegrees=0
   Frame=1086776   AutoMesh=Yes   AtJoints=Yes   AtFrames=No   NumSegments=0   MaxLength=0   MaxDegrees=0
   Frame=1086777   AutoMesh=Yes   AtJoints=Yes   AtFrames=No   NumSegments=0   MaxLength=0   MaxDegrees=0
   Frame=1086778   AutoMesh=Yes   AtJoints=Yes   AtFrames=No   NumSegments=0   MaxLength=0   MaxDegrees=0
# ... 116 like lines cut
 
TABLE:  "FRAME DESIGN PROCEDURES"
   Frame=1086759   DesignProc="From Material"
   Frame=1086760   DesignProc="From Material"
   Frame=1086761   DesignProc="From Material"
   Frame=1086762   DesignProc="From Material"
   Frame=1086763   DesignProc="From Material"
   Frame=1086764   DesignProc="From Material"
   Frame=1086765   DesignProc="From Material"
   Frame=1086766   DesignProc="From Material"
   Frame=1086767   DesignProc="From Material"
   Frame=1086768   DesignProc="From Material"
   Frame=1086769   DesignProc="From Material"
   Frame=1086770   DesignProc="From Material"
   Frame=1086771   DesignProc="From Material"
   Frame=1086772   DesignProc="From Material"
   Frame=1086773   DesignProc="From Material"
   Frame=1086774   DesignProc="From Material"
   Frame=1086775   DesignProc="From Material"
   Frame=1086776   DesignProc="From Material"
   Frame=1086777   DesignProc="From Material"
   Frame=1086778   DesignProc="From Material"
# ... 48 like lines cut
   Frame=1086827   DesignProc="No Design"
   Frame=1086828   DesignProc="No Design"
   Frame=1086829   DesignProc="From Material"
   Frame=1086830   DesignProc="No Design"
   Frame=1086831   DesignProc="No Design"
   Frame=1086832   DesignProc="From Material"
   Frame=1086833   DesignProc="No Design"
   Frame=1086834   DesignProc="No Design"
   Frame=1086835   DesignProc="From Material"
   Frame=1086836   DesignProc="No Design"
   Frame=1086837   DesignProc="No Design"
   Frame=1086838   DesignProc="From Material"
   Frame=1086839   DesignProc="No Design"
   Frame=1086840   DesignProc="No Design"
   Frame=1086841   DesignProc="From Material"
   Frame=1086842   DesignProc="No Design"
   Frame=1086843   DesignProc="No Design"
   Frame=1086844   DesignProc="From Material"
   Frame=1086845   DesignProc="No Design"
   Frame=1086846   DesignProc="No Design"
   Frame=1086847   DesignProc="No Design"
   Frame=1086848   DesignProc="No Design"
   Frame=1086849   DesignProc="No Design"
   Frame=1086850   DesignProc="No Design"
   Frame=1086851   DesignProc="No Design"
   Frame=1086852   DesignProc="No Design"
   Frame=1086853   DesignProc="No Design"
   Frame=1086854   DesignProc="No Design"
   Frame=1086855   DesignProc="No Design"
   Frame=1086856   DesignProc="No Design"
   Frame=1086857   DesignProc="No Design"
   Frame=1086858   DesignProc="No Design"
   Frame=1086859   DesignProc="No Design"
   Frame=1086860   DesignProc="No Design"
   Frame=1086861   DesignProc="No Design"
   Frame=1086862   DesignProc="No Design"
   Frame=1086863   DesignProc="No Design"
   Frame=1086864   DesignProc="No Design"
# ... 24 like lines cut
   Frame=1086889   DesignProc="From Material"
   Frame=1086890   DesignProc="From Material"
   Frame=1086891   DesignProc="From Material"
   Frame=1086892   DesignProc="From Material"
   Frame=1086893   DesignProc="From Material"
   Frame=1086894   DesignProc="From Material"
 
TABLE:  "FRAME LOAD TRANSFER OPTIONS"
   Frame=1086759   Transfer=Yes
   Frame=1086760   Transfer=Yes
   Frame=1086761   Transfer=Yes
   Frame=1086762   Transfer=Yes
   Frame=1086763   Transfer=Yes
   Frame=1086764   Transfer=Yes
   Frame=1086765   Transfer=Yes
   Frame=1086766   Transfer=Yes
   Frame=1086767   Transfer=Yes
   Frame=1086768   Transfer=Yes
   Frame=1086769   Transfer=Yes
   Frame=1086770   Transfer=Yes
   Frame=1086771   Transfer=Yes
   Frame=1086772   Transfer=Yes
   Frame=1086773   Transfer=Yes
   Frame=1086774   Transfer=Yes
   Frame=1086775   Transfer=Yes
   Frame=1086776   Transfer=Yes
   Frame=1086777   Transfer=Yes
   Frame=1086778   Transfer=Yes
# ... 116 like lines cut
 
TABLE:  "FRAME LOCAL AXES ASSIGNMENTS 1 - TYPICAL"
   Frame=1086826   Angle=90
   Frame=1086829   Angle=90
   Frame=1086832   Angle=90
   Frame=1086835   Angle=90
   Frame=1086838   Angle=90
   Frame=1086841   Angle=90
   Frame=1086844   Angle=90
 
TABLE:  "FRAME OUTPUT STATION ASSIGNMENTS"
   Frame=1086759   StationType=MaxStaSpcg   MaxStaSpcg=0.5   AddAtElmInt=Yes   AddAtPtLoad=Yes
   Frame=1086760   StationType=MaxStaSpcg   MaxStaSpcg=0.5   AddAtElmInt=Yes   AddAtPtLoad=Yes
   Frame=1086761   StationType=MaxStaSpcg   MaxStaSpcg=0.5   AddAtElmInt=Yes   AddAtPtLoad=Yes
   Frame=1086762   StationType=MaxStaSpcg   MaxStaSpcg=0.5   AddAtElmInt=Yes   AddAtPtLoad=Yes
   Frame=1086763   StationType=MaxStaSpcg   MaxStaSpcg=0.5   AddAtElmInt=Yes   AddAtPtLoad=Yes
   Frame=1086764   StationType=MaxStaSpcg   MaxStaSpcg=0.5   AddAtElmInt=Yes   AddAtPtLoad=Yes
   Frame=1086765   StationType=MaxStaSpcg   MaxStaSpcg=0.5   AddAtElmInt=Yes   AddAtPtLoad=Yes
   Frame=1086766   StationType=MaxStaSpcg   MaxStaSpcg=0.5   AddAtElmInt=Yes   AddAtPtLoad=Yes
   Frame=1086767   StationType=MaxStaSpcg   MaxStaSpcg=0.5   AddAtElmInt=Yes   AddAtPtLoad=Yes
   Frame=1086768   StationType=MaxStaSpcg   MaxStaSpcg=0.5   AddAtElmInt=Yes   AddAtPtLoad=Yes
   Frame=1086769   StationType=MaxStaSpcg   MaxStaSpcg=0.5   AddAtElmInt=Yes   AddAtPtLoad=Yes
   Frame=1086770   StationType=MaxStaSpcg   MaxStaSpcg=0.5   AddAtElmInt=Yes   AddAtPtLoad=Yes
   Frame=1086771   StationType=MaxStaSpcg   MaxStaSpcg=0.5   AddAtElmInt=Yes   AddAtPtLoad=Yes
   Frame=1086772   StationType=MaxStaSpcg   MaxStaSpcg=0.5   AddAtElmInt=Yes   AddAtPtLoad=Yes
   Frame=1086773   StationType=MaxStaSpcg   MaxStaSpcg=0.5   AddAtElmInt=Yes   AddAtPtLoad=Yes
   Frame=1086774   StationType=MaxStaSpcg   MaxStaSpcg=0.5   AddAtElmInt=Yes   AddAtPtLoad=Yes
   Frame=1086775   StationType=MaxStaSpcg   MaxStaSpcg=0.5   AddAtElmInt=Yes   AddAtPtLoad=Yes
   Frame=1086776   StationType=MaxStaSpcg   MaxStaSpcg=0.5   AddAtElmInt=Yes   AddAtPtLoad=Yes
   Frame=1086777   StationType=MaxStaSpcg   MaxStaSpcg=0.5   AddAtElmInt=Yes   AddAtPtLoad=Yes
   Frame=1086778   StationType=MaxStaSpcg   MaxStaSpcg=0.5   AddAtElmInt=Yes   AddAtPtLoad=Yes
# ... 47 like lines cut
   Frame=1086826   StationType=MinNumSta   MinNumSta=3   AddAtElmInt=Yes   AddAtPtLoad=Yes
   Frame=1086827   StationType=MinNumSta   MinNumSta=3   AddAtElmInt=Yes   AddAtPtLoad=Yes
   Frame=1086828   StationType=MinNumSta   MinNumSta=3   AddAtElmInt=Yes   AddAtPtLoad=Yes
   Frame=1086829   StationType=MinNumSta   MinNumSta=3   AddAtElmInt=Yes   AddAtPtLoad=Yes
   Frame=1086830   StationType=MinNumSta   MinNumSta=3   AddAtElmInt=Yes   AddAtPtLoad=Yes
   Frame=1086831   StationType=MinNumSta   MinNumSta=3   AddAtElmInt=Yes   AddAtPtLoad=Yes
   Frame=1086832   StationType=MinNumSta   MinNumSta=3   AddAtElmInt=Yes   AddAtPtLoad=Yes
   Frame=1086833   StationType=MinNumSta   MinNumSta=3   AddAtElmInt=Yes   AddAtPtLoad=Yes
   Frame=1086834   StationType=MinNumSta   MinNumSta=3   AddAtElmInt=Yes   AddAtPtLoad=Yes
   Frame=1086835   StationType=MinNumSta   MinNumSta=3   AddAtElmInt=Yes   AddAtPtLoad=Yes
   Frame=1086836   StationType=MinNumSta   MinNumSta=3   AddAtElmInt=Yes   AddAtPtLoad=Yes
   Frame=1086837   StationType=MinNumSta   MinNumSta=3   AddAtElmInt=Yes   AddAtPtLoad=Yes
   Frame=1086838   StationType=MinNumSta   MinNumSta=3   AddAtElmInt=Yes   AddAtPtLoad=Yes
   Frame=1086839   StationType=MinNumSta   MinNumSta=3   AddAtElmInt=Yes   AddAtPtLoad=Yes
   Frame=1086840   StationType=MinNumSta   MinNumSta=3   AddAtElmInt=Yes   AddAtPtLoad=Yes
   Frame=1086841   StationType=MinNumSta   MinNumSta=3   AddAtElmInt=Yes   AddAtPtLoad=Yes
   Frame=1086842   StationType=MinNumSta   MinNumSta=3   AddAtElmInt=Yes   AddAtPtLoad=Yes
   Frame=1086843   StationType=MinNumSta   MinNumSta=3   AddAtElmInt=Yes   AddAtPtLoad=Yes
   Frame=1086844   StationType=MinNumSta   MinNumSta=3   AddAtElmInt=Yes   AddAtPtLoad=Yes
   Frame=1086845   StationType=MinNumSta   MinNumSta=3   AddAtElmInt=Yes   AddAtPtLoad=Yes
# ... 43 like lines cut
   Frame=1086889   StationType=MaxStaSpcg   MaxStaSpcg=0.5   AddAtElmInt=Yes   AddAtPtLoad=Yes
   Frame=1086890   StationType=MaxStaSpcg   MaxStaSpcg=0.5   AddAtElmInt=Yes   AddAtPtLoad=Yes
   Frame=1086891   StationType=MaxStaSpcg   MaxStaSpcg=0.5   AddAtElmInt=Yes   AddAtPtLoad=Yes
   Frame=1086892   StationType=MaxStaSpcg   MaxStaSpcg=0.5   AddAtElmInt=Yes   AddAtPtLoad=Yes
   Frame=1086893   StationType=MaxStaSpcg   MaxStaSpcg=0.5   AddAtElmInt=Yes   AddAtPtLoad=Yes
   Frame=1086894   StationType=MaxStaSpcg   MaxStaSpcg=0.5   AddAtElmInt=Yes   AddAtPtLoad=Yes
 
TABLE:  "FRAME SECTION ASSIGNMENTS"
   Frame=1086759   AutoSelect=N.A.   AnalSect=TB   MatProp=Default
   Frame=1086760   AutoSelect=N.A.   AnalSect=TB   MatProp=Default
   Frame=1086761   AutoSelect=N.A.   AnalSect=TB   MatProp=Default
   Frame=1086762   AutoSelect=N.A.   AnalSect=TB   MatProp=Default
   Frame=1086763   AutoSelect=N.A.   AnalSect=TB   MatProp=Default
   Frame=1086764   AutoSelect=N.A.   AnalSect=TB   MatProp=Default
   Frame=1086765   AutoSelect=N.A.   AnalSect=TB   MatProp=Default
   Frame=1086766   AutoSelect=N.A.   AnalSect=TB   MatProp=Default
   Frame=1086767   AutoSelect=N.A.   AnalSect=TB   MatProp=Default
   Frame=1086768   AutoSelect=N.A.   AnalSect=TB   MatProp=Default
   Frame=1086769   AutoSelect=N.A.   AnalSect=TB   MatProp=Default
   Frame=1086770   AutoSelect=N.A.   AnalSect=TB   MatProp=Default
   Frame=1086771   AutoSelect=N.A.   AnalSect=TB   MatProp=Default
   Frame=1086772   AutoSelect=N.A.   AnalSect=TB   MatProp=Default
   Frame=1086773   AutoSelect=N.A.   AnalSect=TB   MatProp=Default
   Frame=1086774   AutoSelect=N.A.   AnalSect=TB   MatProp=Default
   Frame=1086775   AutoSelect=N.A.   AnalSect=TB   MatProp=Default
   Frame=1086776   AutoSelect=N.A.   AnalSect=TB   MatProp=Default
   Frame=1086777   AutoSelect=N.A.   AnalSect=TB   MatProp=Default
   Frame=1086778   AutoSelect=N.A.   AnalSect=TB   MatProp=Default
# ... 15 like lines cut
   Frame=1086794   AutoSelect=N.A.   AnalSect=LB   MatProp=Default
   Frame=1086795   AutoSelect=N.A.   AnalSect=LB   MatProp=Default
   Frame=1086796   AutoSelect=N.A.   AnalSect=LB   MatProp=Default
   Frame=1086797   AutoSelect=N.A.   AnalSect=LB   MatProp=Default
   Frame=1086798   AutoSelect=N.A.   AnalSect=LB   MatProp=Default
   Frame=1086799   AutoSelect=N.A.   AnalSect=LB   MatProp=Default
   Frame=1086800   AutoSelect=N.A.   AnalSect=LB   MatProp=Default
   Frame=1086801   AutoSelect=N.A.   AnalSect=LB   MatProp=Default
   Frame=1086802   AutoSelect=N.A.   AnalSect=LB   MatProp=Default
   Frame=1086803   AutoSelect=N.A.   AnalSect=LB   MatProp=Default
   Frame=1086804   AutoSelect=N.A.   AnalSect=LB   MatProp=Default
   Frame=1086805   AutoSelect=N.A.   AnalSect=LB   MatProp=Default
   Frame=1086806   AutoSelect=N.A.   AnalSect=LB   MatProp=Default
   Frame=1086807   AutoSelect=N.A.   AnalSect=LB   MatProp=Default
   Frame=1086808   AutoSelect=N.A.   AnalSect=LB   MatProp=Default
   Frame=1086809   AutoSelect=N.A.   AnalSect=LB   MatProp=Default
   Frame=1086810   AutoSelect=N.A.   AnalSect=LB   MatProp=Default
   Frame=1086811   AutoSelect=N.A.   AnalSect=LB   MatProp=Default
   Frame=1086812   AutoSelect=N.A.   AnalSect=LB   MatProp=Default
   Frame=1086813   AutoSelect=N.A.   AnalSect=LB   MatProp=Default
# ... 12 like lines cut
   Frame=1086826   AutoSelect=N.A.   AnalSect=EB   MatProp=Default
   Frame=1086827   AutoSelect=N.A.   AnalSect=Piles   MatProp=Default
   Frame=1086828   AutoSelect=N.A.   AnalSect=Piles   MatProp=Default
   Frame=1086829   AutoSelect=N.A.   AnalSect=EB   MatProp=Default
   Frame=1086830   AutoSelect=N.A.   AnalSect=Piles   MatProp=Default
   Frame=1086831   AutoSelect=N.A.   AnalSect=Piles   MatProp=Default
   Frame=1086832   AutoSelect=N.A.   AnalSect=EB   MatProp=Default
   Frame=1086833   AutoSelect=N.A.   AnalSect=Piles   MatProp=Default
   Frame=1086834   AutoSelect=N.A.   AnalSect=Piles   MatProp=Default
   Frame=1086835   AutoSelect=N.A.   AnalSect=EB   MatProp=Default
   Frame=1086836   AutoSelect=N.A.   AnalSect=Piles   MatProp=Default
   Frame=1086837   AutoSelect=N.A.   AnalSect=Piles   MatProp=Default
   Frame=1086838   AutoSelect=N.A.   AnalSect=EB   MatProp=Default
   Frame=1086839   AutoSelect=N.A.   AnalSect=Piles   MatProp=Default
   Frame=1086840   AutoSelect=N.A.   AnalSect=Piles   MatProp=Default
   Frame=1086841   AutoSelect=N.A.   AnalSect=EB   MatProp=Default
   Frame=1086842   AutoSelect=N.A.   AnalSect=Piles   MatProp=Default
   Frame=1086843   AutoSelect=N.A.   AnalSect=Piles   MatProp=Default
   Frame=1086844   AutoSelect=N.A.   AnalSect=EB   MatProp=Default
   Frame=1086845   AutoSelect=N.A.   AnalSect=Piles   MatProp=Default
   Frame=1086846   AutoSelect=N.A.   AnalSect=Piles   MatProp=Default
   Frame=1086847   AutoSelect=N.A.   AnalSect=Piles   MatProp=Default
   Frame=1086848   AutoSelect=N.A.   AnalSect=Piles   MatProp=Default
   Frame=1086849   AutoSelect=N.A.   AnalSect=Piles   MatProp=Default
   Frame=1086850   AutoSelect=N.A.   AnalSect=Piles   MatProp=Default
   Frame=1086851   AutoSelect=N.A.   AnalSect=Piles   MatProp=Default
   Frame=1086852   AutoSelect=N.A.   AnalSect=Piles   MatProp=Default
   Frame=1086853   AutoSelect=N.A.   AnalSect=Piles   MatProp=Default
   Frame=1086854   AutoSelect=N.A.   AnalSect=Piles   MatProp=Default
   Frame=1086855   AutoSelect=N.A.   AnalSect=Piles   MatProp=Default
   Frame=1086856   AutoSelect=N.A.   AnalSect=Piles   MatProp=Default
   Frame=1086857   AutoSelect=N.A.   AnalSect=Piles   MatProp=Default
   Frame=1086858   AutoSelect=N.A.   AnalSect=Piles   MatProp=Default
   Frame=1086859   AutoSelect=N.A.   AnalSect=Piles   MatProp=Default
   Frame=1086860   AutoSelect=N.A.   AnalSect=Piles   MatProp=Default
   Frame=1086861   AutoSelect=N.A.   AnalSect=Piles   MatProp=Default
   Frame=1086862   AutoSelect=N.A.   AnalSect=Piles   MatProp=Default
   Frame=1086863   AutoSelect=N.A.   AnalSect=Piles   MatProp=Default
   Frame=1086864   AutoSelect=N.A.   AnalSect=Piles   MatProp=Default
# ... 24 like lines cut
   Frame=1086889   AutoSelect=N.A.   AnalSect=EB-1   MatProp=Default
   Frame=1086890   AutoSelect=N.A.   AnalSect=EB-1   MatProp=Default
   Frame=1086891   AutoSelect=N.A.   AnalSect=EB-1   MatProp=Default
   Frame=1086892   AutoSelect=N.A.   AnalSect=EB-1   MatProp=Default
   Frame=1086893   AutoSelect=N.A.   AnalSect=EB-1   MatProp=Default
   Frame=1086894   AutoSelect=N.A.   AnalSect=EB-1   MatProp=Default
 
TABLE:  "FRAME SECTION PROPERTIES 01 - GENERAL"
   SectionName=EB   Material=BTCT   Shape=Rectangular   t3=1.4   t2=2   Area=2.8   TorsConst=1.03873877613333   I33=0.457333333333333   I22=0.933333333333333   I23=0   AS2=2.33333333333333   AS3=2.33333333333333   S33Top=0.653333333333333 _
        S33Bot=0.653333333333333   S22Left=0.933333333333333   S22Right=0.933333333333333   Z33=0.98   Z22=1.4   R33=0.404145188432738   R22=0.577350269189626   CGOffset3=0   CGOffset2=0   EccV2=0   EccV3=0   Cw=0   Color=Magenta _
        FromFile=No   AMod=1   A2Mod=1   A3Mod=1   JMod=1   I2Mod=1   I3Mod=1   MMod=1   WMod=1
   SectionName=EB-1   Material=BTCT   Shape=Rectangular   t3=2   t2=2   Area=4   TorsConst=2.25333333333333   I33=1.33333333333333   I22=1.33333333333333   I23=0   AS2=3.33333333333333   AS3=3.33333333333333   S33Top=1.33333333333333 _
        S33Bot=1.33333333333333   S22Left=1.33333333333333   S22Right=1.33333333333333   Z33=2   Z22=2   R33=0.577350269189626   R22=0.577350269189626   CGOffset3=0   CGOffset2=0   EccV2=0   EccV3=0   Cw=0   Color=Yellow   FromFile=No _
        AMod=1   A2Mod=1   A3Mod=1   JMod=1   I2Mod=1   I3Mod=1   MMod=1   WMod=1
   SectionName=LB   Material=BTCT   Shape=Rectangular   t3=1.4   t2=2   Area=2.8   TorsConst=1.03873877613333   I33=0.457333333333333   I22=0.933333333333333   I23=0   AS2=2.33333333333333   AS3=2.33333333333333   S33Top=0.653333333333333 _
        S33Bot=0.653333333333333   S22Left=0.933333333333333   S22Right=0.933333333333333   Z33=0.98   Z22=1.4   R33=0.404145188432738   R22=0.577350269189626   CGOffset3=0   CGOffset2=0   EccV2=0   EccV3=0   Cw=0   Color=Red   FromFile=No _
        AMod=1   A2Mod=1   A3Mod=1   JMod=1   I2Mod=1   I3Mod=1   MMod=1   WMod=1
   SectionName=Piles   Material=BTCTCOC   Shape=Pipe   t3=1.2   tw=0.15   Area=0.494800842940393   TorsConst=0.139162737076985   I33=0.0695813685384927   I22=0.0695813685384927   I23=0   AS2=0.250743670408983   AS3=0.250743670408983 _
        S33Top=0.115968947564155   S33Bot=0.115968947564155   S22Left=0.115968947564155   S22Right=0.115968947564155   Z33=0.1665   Z22=0.1665   R33=0.375   R22=0.375   CGOffset3=0   CGOffset2=0   EccV2=0   EccV3=0   Cw=0   Color=Gray8Dark _
        FromFile=No   AMod=1   A2Mod=1   A3Mod=1   JMod=1   I2Mod=1   I3Mod=1   MMod=1   WMod=1
   SectionName=TB   Material=BTCT   Shape=Rectangular   t3=1.4   t2=2   Area=2.8   TorsConst=1.03873877613333   I33=0.457333333333333   I22=0.933333333333333   I23=0   AS2=2.33333333333333   AS3=2.33333333333333   S33Top=0.653333333333333 _
        S33Bot=0.653333333333333   S22Left=0.933333333333333   S22Right=0.933333333333333   Z33=0.98   Z22=1.4   R33=0.404145188432738   R22=0.577350269189626   CGOffset3=0   CGOffset2=0   EccV2=0   EccV3=0   Cw=0   Color=Cyan   FromFile=No _
        AMod=1   A2Mod=1   A3Mod=1   JMod=1   I2Mod=1   I3Mod=1   MMod=1   WMod=1
 
TABLE:  "FRAME SECTION PROPERTIES 02 - CONCRETE COLUMN"
   SectionName=EB   RebarMatL=A706   RebarMatC=A706   ReinfConfig=Rectangular   LatReinf=Ties   Cover=0.05   NumBars3Dir=2   NumBars2Dir=2   BarSizeL=12d   BarSizeC=10d   SpacingC=0.1   NumCBars2=2   NumCBars3=2   ReinfType=Design
   SectionName=EB-1   RebarMatL=A706   RebarMatC=A706   ReinfConfig=Rectangular   LatReinf=Ties   Cover=0.05   NumBars3Dir=2   NumBars2Dir=2   BarSizeL=12d   BarSizeC=10d   SpacingC=0.1   NumCBars2=2   NumCBars3=2   ReinfType=Design
   SectionName=LB   RebarMatL=A706   RebarMatC=A706   ReinfConfig=Rectangular   LatReinf=Ties   Cover=0.05   NumBars3Dir=2   NumBars2Dir=2   BarSizeL=12d   BarSizeC=10d   SpacingC=0.1   NumCBars2=2   NumCBars3=2   ReinfType=Design
   SectionName=TB   RebarMatL=A706   RebarMatC=A706   ReinfConfig=Rectangular   LatReinf=Ties   Cover=0.05   NumBars3Dir=2   NumBars2Dir=2   BarSizeL=12d   BarSizeC=10d   SpacingC=0.1   NumCBars2=2   NumCBars3=2   ReinfType=Design
 
TABLE:  "FRAME SECTION PROPERTIES 13 - TIME DEPENDENT"
   SectionName=EB   TypeSize=Auto   AutoSFSize=1
   SectionName=EB-1   TypeSize=Auto   AutoSFSize=1
   SectionName=LB   TypeSize=Auto   AutoSFSize=1
   SectionName=Piles   TypeSize=Auto   AutoSFSize=1
   SectionName=TB   TypeSize=Auto   AutoSFSize=1
 
TABLE:  "FUNCTION - PLOT FUNCTIONS"
   PlotFunc="Input Energy"   Type=Energy   Component=Input   Mode=All
 
TABLE:  "FUNCTION - POWER SPECTRAL DENSITY - USER"
   Name=UNIFPSD   Frequency=0   Value=1
   Name=UNIFPSD   Frequency=1   Value=1
 
TABLE:  "FUNCTION - RESPONSE SPECTRUM - USER"
   Name=UNIFRS   Period=0   Accel=1   FuncDamp=0.05
   Name=UNIFRS   Period=1   Accel=1
 
TABLE:  "FUNCTION - STEADY STATE - USER"
   Name=UNIFSS   Frequency=0   Value=1
   Name=UNIFSS   Frequency=1   Value=1
 
TABLE:  "FUNCTION - TIME HISTORY - USER"
   Name=RAMPTH   Time=0   Value=0
   Name=RAMPTH   Time=1   Value=1
   Name=RAMPTH   Time=4   Value=1
   Name=UNIFTH   Time=0   Value=1
   Name=UNIFTH   Time=1   Value=1
 
TABLE:  "GRID LINES"
   CoordSys=GLOBAL   AxisDir=X   GridID=A   XRYZCoord=-10   LineType=Primary   LineColor=Gray8Dark   Visible=Yes   BubbleLoc=End   AllVisible=Yes   BubbleSize=0.9375
   CoordSys=GLOBAL   AxisDir=X   GridID=B   XRYZCoord=-9   LineType=Primary   LineColor=Gray8Dark   Visible=Yes   BubbleLoc=End
   CoordSys=GLOBAL   AxisDir=X   GridID=C   XRYZCoord=-4.5   LineType=Primary   LineColor=Gray8Dark   Visible=Yes   BubbleLoc=End
   CoordSys=GLOBAL   AxisDir=X   GridID=D   XRYZCoord=0   LineType=Primary   LineColor=Gray8Dark   Visible=Yes   BubbleLoc=End
   CoordSys=GLOBAL   AxisDir=X   GridID=E   XRYZCoord=4.5   LineType=Primary   LineColor=Gray8Dark   Visible=Yes   BubbleLoc=End
   CoordSys=GLOBAL   AxisDir=X   GridID=F   XRYZCoord=9   LineType=Primary   LineColor=Gray8Dark   Visible=Yes   BubbleLoc=End
   CoordSys=GLOBAL   AxisDir=X   GridID=G   XRYZCoord=10   LineType=Primary   LineColor=Gray8Dark   Visible=Yes   BubbleLoc=End
   CoordSys=GLOBAL   AxisDir=Y   GridID=1   XRYZCoord=-5.2   LineType=Primary   LineColor=Gray8Dark   Visible=Yes   BubbleLoc=Start
   CoordSys=GLOBAL   AxisDir=Y   GridID=2   XRYZCoord=-4.2   LineType=Primary   LineColor=Gray8Dark   Visible=Yes   BubbleLoc=Start
   CoordSys=GLOBAL   AxisDir=Y   GridID=3   XRYZCoord=0   LineType=Primary   LineColor=Gray8Dark   Visible=Yes   BubbleLoc=Start
   CoordSys=GLOBAL   AxisDir=Y   GridID=4   XRYZCoord=4.2   LineType=Primary   LineColor=Gray8Dark   Visible=Yes   BubbleLoc=Start
   CoordSys=GLOBAL   AxisDir=Y   GridID=5   XRYZCoord=4.8   LineType=Primary   LineColor=Gray8Dark   Visible=Yes   BubbleLoc=Start
   CoordSys=GLOBAL   AxisDir=Z   GridID=Z1   XRYZCoord=0   LineType=Primary   LineColor=Gray8Dark   Visible=Yes   BubbleLoc=End
   CoordSys=GLOBAL   AxisDir=Z   GridID=Z2   XRYZCoord=13   LineType=Primary   LineColor=Gray8Dark   Visible=Yes   BubbleLoc=End
 
TABLE:  "GROUPS 1 - DEFINITIONS"
   GroupName=ALL   Selection=Yes   SectionCut=Yes   Steel=Yes   Concrete=Yes   Aluminum=Yes   ColdFormed=Yes   Stage=Yes   Bridge=Yes   AutoSeismic=No   AutoWind=No   SelDesSteel=No   SelDesAlum=No   SelDesCold=No   MassWeight=Yes   Color=Red
   GroupName=Pile   Selection=Yes   SectionCut=Yes   Steel=Yes   Concrete=Yes   Aluminum=Yes   ColdFormed=Yes   Stage=Yes   Bridge=Yes   AutoSeismic=No   AutoWind=No   SelDesSteel=No   SelDesAlum=No   SelDesCold=No   MassWeight=Yes   Color=Gray8Dark
   GroupName=DN   Selection=Yes   SectionCut=Yes   Steel=Yes   Concrete=Yes   Aluminum=Yes   ColdFormed=Yes   Stage=Yes   Bridge=Yes   AutoSeismic=No   AutoWind=No   SelDesSteel=No   SelDesAlum=No   SelDesCold=No   MassWeight=Yes   Color=Yellow
   GroupName=Pile_Toe   Selection=Yes   SectionCut=Yes   Steel=Yes   Concrete=Yes   Aluminum=Yes   ColdFormed=Yes   Stage=Yes   Bridge=Yes   AutoSeismic=No   AutoWind=No   SelDesSteel=No   SelDesAlum=No   SelDesCold=No   MassWeight=Yes   Color=Green
   GroupName=Pile_Bend   Selection=Yes   SectionCut=Yes   Steel=Yes   Concrete=Yes   Aluminum=Yes   ColdFormed=Yes   Stage=Yes   Bridge=Yes   AutoSeismic=No   AutoWind=No   SelDesSteel=No   SelDesAlum=No   SelDesCold=No   MassWeight=Yes   Color=Cyan
   GroupName=Beam   Selection=Yes   SectionCut=Yes   Steel=Yes   Concrete=Yes   Aluminum=Yes   ColdFormed=Yes   Stage=Yes   Bridge=Yes   AutoSeismic=No   AutoWind=No   SelDesSteel=No   SelDesAlum=No   SelDesCold=No   MassWeight=Yes   Color=Blue
   GroupName=Piles   Selection=Yes   SectionCut=Yes   Steel=Yes   Concrete=Yes   Aluminum=Yes   ColdFormed=Yes   Stage=Yes   Bridge=Yes   AutoSeismic=No   AutoWind=No   SelDesSteel=No   SelDesAlum=No   SelDesCold=No   MassWeight=Yes   Color=Magenta
   GroupName=Beams   Selection=Yes   SectionCut=Yes   Steel=Yes   Concrete=Yes   Aluminum=Yes   ColdFormed=Yes   Stage=Yes   Bridge=Yes   AutoSeismic=No   AutoWind=No   SelDesSteel=No   SelDesAlum=No   SelDesCold=No   MassWeight=Yes   Color=Yellow
 
TABLE:  "GROUPS 2 - ASSIGNMENTS"
 
TABLE:  "JOINT COORDINATES"
   Joint=937028   CoordSys=GLOBAL   CoordType=Cartesian   XorR=-9   Y=-5   Z=0   SpecialJt=No   GUID=499930c0-c276-4bef-a423-6c4ad130c61f
   Joint=937029   CoordSys=GLOBAL   CoordType=Cartesian   XorR=-9   Y=-4.5   Z=0   SpecialJt=No   GUID=0a7c04a2-d282-4f2c-aea8-16be29e2139d
   Joint=937030   CoordSys=GLOBAL   CoordType=Cartesian   XorR=-6   Y=-5   Z=0   SpecialJt=No   GUID=63c5dd75-beeb-465c-8657-3b8b9d36cdf6
   Joint=937031   CoordSys=GLOBAL   CoordType=Cartesian   XorR=-6   Y=-4.5   Z=0   SpecialJt=No   GUID=d8389b4a-e28b-4ebc-b1df-6f06b13f744e
   Joint=937032   CoordSys=GLOBAL   CoordType=Cartesian   XorR=-3   Y=-5   Z=0   SpecialJt=No   GUID=5f4a5911-e349-44c8-a795-0afcad892dad
   Joint=937033   CoordSys=GLOBAL   CoordType=Cartesian   XorR=-3   Y=-4.5   Z=0   SpecialJt=No   GUID=a54aad76-1f15-46ea-a48c-a9455eb88223
   Joint=937034   CoordSys=GLOBAL   CoordType=Cartesian   XorR=0   Y=-5   Z=0   SpecialJt=No   GUID=c3de001f-2d94-4509-8008-d8b454314edd
   Joint=937035   CoordSys=GLOBAL   CoordType=Cartesian   XorR=0   Y=-4.5   Z=0   SpecialJt=No   GUID=beeba710-530c-4901-96de-fed8f75e3b2b
   Joint=937036   CoordSys=GLOBAL   CoordType=Cartesian   XorR=3   Y=-5   Z=0   SpecialJt=No   GUID=c9b21b8e-e2cf-4288-afd4-65beaebab515
   Joint=937037   CoordSys=GLOBAL   CoordType=Cartesian   XorR=3   Y=-4.5   Z=0   SpecialJt=No   GUID=d57170ad-edf7-4df1-8f95-a14cdb34f1f5
   Joint=937038   CoordSys=GLOBAL   CoordType=Cartesian   XorR=6   Y=-5   Z=0   SpecialJt=No   GUID=6a690160-2fce-46f7-8a8d-dd1fb0ac5c45
   Joint=937039   CoordSys=GLOBAL   CoordType=Cartesian   XorR=6   Y=-4.5   Z=0   SpecialJt=No   GUID=8538b03e-1b2c-4412-9c8e-af23ce16c500
   Joint=937040   CoordSys=GLOBAL   CoordType=Cartesian   XorR=9   Y=-5   Z=0   SpecialJt=No   GUID=5d6ac7b3-ca0f-4269-bb6e-29fdcb8a6b96
   Joint=937041   CoordSys=GLOBAL   CoordType=Cartesian   XorR=9   Y=-4.5   Z=0   SpecialJt=No   GUID=517acc9b-8b54-4a8f-9af6-c17ca7d60ec9
   Joint=937042   CoordSys=GLOBAL   CoordType=Cartesian   XorR=-9   Y=-1.5   Z=0   SpecialJt=No   GUID=cb8c0226-f66e-4e69-b774-f20bc9c8681e
   Joint=937043   CoordSys=GLOBAL   CoordType=Cartesian   XorR=-6   Y=-1.5   Z=0   SpecialJt=No   GUID=8ae9f65f-eb43-41bc-9776-57c30b0136dd
   Joint=937044   CoordSys=GLOBAL   CoordType=Cartesian   XorR=-3   Y=-1.5   Z=0   SpecialJt=No   GUID=b712a1a6-fa76-43d4-adc2-e09f7befe0f4
   Joint=937045   CoordSys=GLOBAL   CoordType=Cartesian   XorR=0   Y=-1.5   Z=0   SpecialJt=No   GUID=620d14f3-bc4b-4f74-90b1-4ec92dae7d25
   Joint=937046   CoordSys=GLOBAL   CoordType=Cartesian   XorR=3   Y=-1.5   Z=0   SpecialJt=No   GUID=82b6a182-1247-47eb-9555-91f91617700b
   Joint=937047   CoordSys=GLOBAL   CoordType=Cartesian   XorR=6   Y=-1.5   Z=0   SpecialJt=No   GUID=c7a66be8-e8ca-4601-b4c3-df5489d9f4d5
   Joint=937048   CoordSys=GLOBAL   CoordType=Cartesian   XorR=9   Y=-1.5   Z=0   SpecialJt=No   GUID=1c21e0b2-d49f-411f-9f34-3dbfb264738b
   Joint=937049   CoordSys=GLOBAL   CoordType=Cartesian   XorR=-9   Y=1.5   Z=0   SpecialJt=No   GUID=e5367656-268d-461a-8108-a2bc91653aaf
   Joint=937050   CoordSys=GLOBAL   CoordType=Cartesian   XorR=-6   Y=1.5   Z=0   SpecialJt=No   GUID=1f20d1e3-5175-49e2-a216-d8bd9fa349a1
   Joint=937051   CoordSys=GLOBAL   CoordType=Cartesian   XorR=-3   Y=1.5   Z=0   SpecialJt=No   GUID=5bf96cf0-2a4d-4f02-8293-c62997a06fe3
   Joint=937052   CoordSys=GLOBAL   CoordType=Cartesian   XorR=0   Y=1.5   Z=0   SpecialJt=No   GUID=11c20198-ec10-4b19-80c9-4b78a71b24e3
   Joint=937053   CoordSys=GLOBAL   CoordType=Cartesian   XorR=3   Y=1.5   Z=0   SpecialJt=No   GUID=5c34b288-035d-4fd3-8911-c69ff5861fb1
   Joint=937054   CoordSys=GLOBAL   CoordType=Cartesian   XorR=6   Y=1.5   Z=0   SpecialJt=No   GUID=045946f9-c312-499a-9467-c82b9c841f32
   Joint=937055   CoordSys=GLOBAL   CoordType=Cartesian   XorR=9   Y=1.5   Z=0   SpecialJt=No   GUID=ef6e1b6d-a7b1-49f6-bdb4-517f2eb99314
   Joint=937056   CoordSys=GLOBAL   CoordType=Cartesian   XorR=-9   Y=4.5   Z=0   SpecialJt=No   GUID=e8e6a02c-12f5-4e9e-b1ce-a7637c8c6b4f
   Joint=937057   CoordSys=GLOBAL   CoordType=Cartesian   XorR=-6   Y=4.5   Z=0   SpecialJt=No   GUID=c327753c-2286-4d33-8924-14fb7f8d211e
   Joint=937058   CoordSys=GLOBAL   CoordType=Cartesian   XorR=-3   Y=4.5   Z=0   SpecialJt=No   GUID=474e32a7-2afd-4bcb-9c8a-b78695adf0c9
   Joint=937059   CoordSys=GLOBAL   CoordType=Cartesian   XorR=0   Y=4.5   Z=0   SpecialJt=No   GUID=9d315232-4649-478c-9277-b93da1e1860c
   Joint=937060   CoordSys=GLOBAL   CoordType=Cartesian   XorR=3   Y=4.5   Z=0   SpecialJt=No   GUID=d6ed2b0e-46dd-4f68-9fef-7ed2ce99d430
   Joint=937061   CoordSys=GLOBAL   CoordType=Cartesian   XorR=6   Y=4.5   Z=0   SpecialJt=No   GUID=1650b477-8f9b-4a01-a76e-447000588a61
   Joint=937062   CoordSys=GLOBAL   CoordType=Cartesian   XorR=9   Y=4.5   Z=0   SpecialJt=No   GUID=eb4ccfcc-f192-40f8-9b61-32dfffde4c63
   Joint=937063   CoordSys=GLOBAL   CoordType=Cartesian   XorR=-9   Y=5   Z=0   SpecialJt=No   GUID=bbc15b6f-f9e8-4f7d-98ac-e75f36866338
   Joint=937064   CoordSys=GLOBAL   CoordType=Cartesian   XorR=-6   Y=5   Z=0   SpecialJt=No   GUID=afdefc00-e18f-45e4-8729-5a1ad1c7792f
   Joint=937065   CoordSys=GLOBAL   CoordType=Cartesian   XorR=-3   Y=5   Z=0   SpecialJt=No   GUID=8e74b505-0a38-47ff-a4f5-9063232131ef
   Joint=937066   CoordSys=GLOBAL   CoordType=Cartesian   XorR=0   Y=5   Z=0   SpecialJt=No   GUID=711382f5-9b46-4559-8736-15dce6bd8bb4
   Joint=937067   CoordSys=GLOBAL   CoordType=Cartesian   XorR=3   Y=5   Z=0   SpecialJt=No   GUID=65c45c73-c41c-4ffc-be2b-025ad5d1e5ac
   Joint=937068   CoordSys=GLOBAL   CoordType=Cartesian   XorR=6   Y=5   Z=0   SpecialJt=No   GUID=84f772df-d8ed-441b-aacf-5295c4405c1a
   Joint=937069   CoordSys=GLOBAL   CoordType=Cartesian   XorR=9   Y=5   Z=0   SpecialJt=No   GUID=e0f90d62-4e14-4deb-9754-3ca60b19e0ec
   Joint=937070   CoordSys=GLOBAL   CoordType=Cartesian   XorR=-10   Y=-4.5   Z=0   SpecialJt=No   GUID=2d4daa80-5290-4c0f-9c1a-2293b6c30c9d
   Joint=937071   CoordSys=GLOBAL   CoordType=Cartesian   XorR=-10   Y=-1.5   Z=0   SpecialJt=No   GUID=87806974-f086-4a37-a1d3-39f472ac075c
   Joint=937072   CoordSys=GLOBAL   CoordType=Cartesian   XorR=-10   Y=1.5   Z=0   SpecialJt=No   GUID=9f012aae-b30f-4908-8766-c61b67bb2d0e
   Joint=937073   CoordSys=GLOBAL   CoordType=Cartesian   XorR=-10   Y=4.5   Z=0   SpecialJt=No   GUID=a2c1b3c4-456f-488d-a4d9-43246dd178ee
   Joint=937074   CoordSys=GLOBAL   CoordType=Cartesian   XorR=10   Y=-4.5   Z=0   SpecialJt=No   GUID=43e33b7a-7967-4ab8-aae1-c0cde0660cc3
   Joint=937075   CoordSys=GLOBAL   CoordType=Cartesian   XorR=10   Y=-1.5   Z=0   SpecialJt=No   GUID=f02ecf7e-b04e-4165-8a0d-d97638aebb39
   Joint=937076   CoordSys=GLOBAL   CoordType=Cartesian   XorR=10   Y=1.5   Z=0   SpecialJt=No   GUID=b72315f0-c410-4a10-b572-132c54bd2515
   Joint=937077   CoordSys=GLOBAL   CoordType=Cartesian   XorR=10   Y=4.5   Z=0   SpecialJt=No   GUID=294b64a1-c9fe-44be-9963-479f242b73d6
   Joint=937078   CoordSys=GLOBAL   CoordType=Cartesian   XorR=-9   Y=-4.5   Z=-3   SpecialJt=No   GUID=1a4f8679-5cc7-4740-b1a9-9369def90dcd
   Joint=937079   CoordSys=GLOBAL   CoordType=Cartesian   XorR=-9   Y=-4.5   Z=-16.7344389692158   SpecialJt=No   GUID=8834021f-5df1-47c9-96f4-161dde89dec1
   Joint=937080   CoordSys=GLOBAL   CoordType=Cartesian   XorR=-9   Y=-4.5   Z=-16.8   SpecialJt=No   GUID=7e1b8cce-b2b3-4956-b7b7-27195e5bb9e8
   Joint=937081   CoordSys=GLOBAL   CoordType=Cartesian   XorR=-6   Y=-4.5   Z=-3   SpecialJt=No   GUID=ba5d1380-7605-4fdd-b3db-3b907f6c2858
   Joint=937082   CoordSys=GLOBAL   CoordType=Cartesian   XorR=-6   Y=-4.5   Z=-16.7344389692158   SpecialJt=No   GUID=23952411-9eb7-4f97-bf99-33ae96b80d55
   Joint=937083   CoordSys=GLOBAL   CoordType=Cartesian   XorR=-6   Y=-4.5   Z=-16.8   SpecialJt=No   GUID=9e48f5ee-9f66-4199-b4f4-c2fc08b9b613
   Joint=937084   CoordSys=GLOBAL   CoordType=Cartesian   XorR=-3   Y=-4.5   Z=-3   SpecialJt=No   GUID=8271ed63-1d8f-4a43-90a2-493329706012
   Joint=937085   CoordSys=GLOBAL   CoordType=Cartesian   XorR=-3   Y=-4.5   Z=-16.7344389692158   SpecialJt=No   GUID=61bc297b-6e4e-45bd-939b-6b88e3a5469a
   Joint=937086   CoordSys=GLOBAL   CoordType=Cartesian   XorR=-3   Y=-4.5   Z=-16.8   SpecialJt=No   GUID=9c9f10ab-5dac-4e85-99da-817a9aff2df8
   Joint=937087   CoordSys=GLOBAL   CoordType=Cartesian   XorR=0   Y=-4.5   Z=-3   SpecialJt=No   GUID=a83e2fa6-c59e-4a9a-80ee-6d9c9790a228
   Joint=937088   CoordSys=GLOBAL   CoordType=Cartesian   XorR=0   Y=-4.5   Z=-16.7344389692158   SpecialJt=No   GUID=1b14d2f6-8544-44c5-9a34-5f17841e45b1
   Joint=937089   CoordSys=GLOBAL   CoordType=Cartesian   XorR=0   Y=-4.5   Z=-16.8   SpecialJt=No   GUID=6978537e-f95c-41a6-9b3f-4d22cdc8291c
   Joint=937090   CoordSys=GLOBAL   CoordType=Cartesian   XorR=3   Y=-4.5   Z=-3   SpecialJt=No   GUID=4337c697-76cf-4fca-adee-3f0c3e5409f2
   Joint=937091   CoordSys=GLOBAL   CoordType=Cartesian   XorR=3   Y=-4.5   Z=-16.7344389692158   SpecialJt=No   GUID=fa63d65f-368d-44a7-bd6e-a35300d9c8e0
   Joint=937092   CoordSys=GLOBAL   CoordType=Cartesian   XorR=3   Y=-4.5   Z=-16.8   SpecialJt=No   GUID=7012d6b9-a920-4890-bb39-f19d757ab4de
   Joint=937093   CoordSys=GLOBAL   CoordType=Cartesian   XorR=6   Y=-4.5   Z=-3   SpecialJt=No   GUID=3b2ae0d0-4061-44f7-9ffd-bbb9452915eb
   Joint=937094   CoordSys=GLOBAL   CoordType=Cartesian   XorR=6   Y=-4.5   Z=-16.7344389692158   SpecialJt=No   GUID=247b7335-9fa1-4d48-919c-1ba85665b8ef
   Joint=937095   CoordSys=GLOBAL   CoordType=Cartesian   XorR=6   Y=-4.5   Z=-16.8   SpecialJt=No   GUID=dab65d0b-d61e-4f43-bf15-8cb981b1709c
   Joint=937096   CoordSys=GLOBAL   CoordType=Cartesian   XorR=9   Y=-4.5   Z=-3   SpecialJt=No   GUID=b43a185c-4637-4ea3-80b3-1218dc6d1bdf
   Joint=937097   CoordSys=GLOBAL   CoordType=Cartesian   XorR=9   Y=-4.5   Z=-16.7344389692158   SpecialJt=No   GUID=5618513b-44d2-4b71-8ad6-cc57243c90ce
   Joint=937098   CoordSys=GLOBAL   CoordType=Cartesian   XorR=9   Y=-4.5   Z=-16.8   SpecialJt=No   GUID=5b4aed78-b455-4f1d-8218-035741c2e8da
   Joint=937099   CoordSys=GLOBAL   CoordType=Cartesian   XorR=-9   Y=-1.5   Z=-16.7344389692158   SpecialJt=No   GUID=dcebb391-544a-41eb-8582-307374e41c4d
   Joint=937100   CoordSys=GLOBAL   CoordType=Cartesian   XorR=-9   Y=-1.5   Z=-16.8   SpecialJt=No   GUID=f287cfec-d43c-4e77-a8ff-2b71f9454e70
   Joint=937101   CoordSys=GLOBAL   CoordType=Cartesian   XorR=-6   Y=-1.5   Z=-16.7344389692158   SpecialJt=No   GUID=661cc065-9c29-4959-975c-eec5a2ccd960
   Joint=937102   CoordSys=GLOBAL   CoordType=Cartesian   XorR=-6   Y=-1.5   Z=-16.8   SpecialJt=No   GUID=5fc3fe3d-ebc0-44b9-ad90-4214671cc263
   Joint=937103   CoordSys=GLOBAL   CoordType=Cartesian   XorR=-3   Y=-1.5   Z=-16.7344389692158   SpecialJt=No   GUID=6c5a5f40-a888-479e-9169-2269c2762244
   Joint=937104   CoordSys=GLOBAL   CoordType=Cartesian   XorR=-3   Y=-1.5   Z=-16.8   SpecialJt=No   GUID=3e47829a-37ab-4d43-8394-af09a2f9b593
   Joint=937105   CoordSys=GLOBAL   CoordType=Cartesian   XorR=0   Y=-1.5   Z=-16.7344389692158   SpecialJt=No   GUID=c6884968-eb26-4470-8240-2c34085b5b61
   Joint=937106   CoordSys=GLOBAL   CoordType=Cartesian   XorR=0   Y=-1.5   Z=-16.8   SpecialJt=No   GUID=d3ab9aa3-b804-4f93-89ec-249c9a601058
   Joint=937107   CoordSys=GLOBAL   CoordType=Cartesian   XorR=3   Y=-1.5   Z=-16.7344389692158   SpecialJt=No   GUID=e81463e6-2f4a-42d9-adfc-a88bea420681
   Joint=937108   CoordSys=GLOBAL   CoordType=Cartesian   XorR=3   Y=-1.5   Z=-16.8   SpecialJt=No   GUID=42d0b409-88f2-478e-bbd5-782f368de3df
   Joint=937109   CoordSys=GLOBAL   CoordType=Cartesian   XorR=6   Y=-1.5   Z=-16.7344389692158   SpecialJt=No   GUID=a989dfe8-a747-4771-81ef-887182d6e167
   Joint=937110   CoordSys=GLOBAL   CoordType=Cartesian   XorR=6   Y=-1.5   Z=-16.8   SpecialJt=No   GUID=96ec07e5-3484-4742-a2e5-e476cbb27e3e
   Joint=937111   CoordSys=GLOBAL   CoordType=Cartesian   XorR=9   Y=-1.5   Z=-16.7344389692158   SpecialJt=No   GUID=cde553fa-acc7-4d77-be5a-5ca3b260ddd1
   Joint=937112   CoordSys=GLOBAL   CoordType=Cartesian   XorR=9   Y=-1.5   Z=-16.8   SpecialJt=No   GUID=6e39c41d-06c7-4f58-9828-ba50d8c797dd
   Joint=937113   CoordSys=GLOBAL   CoordType=Cartesian   XorR=-9   Y=1.5   Z=-16.7344389692158   SpecialJt=No   GUID=5bb7ab68-b718-405e-9a1c-89f90182a3c4
   Joint=937114   CoordSys=GLOBAL   CoordType=Cartesian   XorR=-9   Y=1.5   Z=-16.8   SpecialJt=No   GUID=03956c2a-de7a-483f-8ec0-617d912cd6e2
   Joint=937115   CoordSys=GLOBAL   CoordType=Cartesian   XorR=-6   Y=1.5   Z=-16.7344389692158   SpecialJt=No   GUID=76e659c7-426d-4fe4-8185-c81cf7d5c477
   Joint=937116   CoordSys=GLOBAL   CoordType=Cartesian   XorR=-6   Y=1.5   Z=-16.8   SpecialJt=No   GUID=0e16d94f-20cd-40df-a223-528cd29b1c79
   Joint=937117   CoordSys=GLOBAL   CoordType=Cartesian   XorR=-3   Y=1.5   Z=-16.7344389692158   SpecialJt=No   GUID=b5c4cede-1562-4990-a510-c9b08c41606c
   Joint=937118   CoordSys=GLOBAL   CoordType=Cartesian   XorR=-3   Y=1.5   Z=-16.8   SpecialJt=No   GUID=7e11f02b-5548-4ee3-b8fa-616ee645f5d2
   Joint=937119   CoordSys=GLOBAL   CoordType=Cartesian   XorR=0   Y=1.5   Z=-16.7344389692158   SpecialJt=No   GUID=1329864d-3322-4f50-8a25-1b8e0e4b2f18
   Joint=937120   CoordSys=GLOBAL   CoordType=Cartesian   XorR=0   Y=1.5   Z=-16.8   SpecialJt=No   GUID=fbac024e-3f3c-4269-8539-3a785ecc8526
   Joint=937121   CoordSys=GLOBAL   CoordType=Cartesian   XorR=3   Y=1.5   Z=-16.7344389692158   SpecialJt=No   GUID=a6a18d3b-50c3-4b88-a6c1-13f995b73d6c
   Joint=937122   CoordSys=GLOBAL   CoordType=Cartesian   XorR=3   Y=1.5   Z=-16.8   SpecialJt=No   GUID=fbfe5fd2-9606-4f96-baac-fd9ff5754bac
   Joint=937123   CoordSys=GLOBAL   CoordType=Cartesian   XorR=6   Y=1.5   Z=-16.7344389692158   SpecialJt=No   GUID=72d2e1a2-d242-4806-942e-c11985de894c
   Joint=937124   CoordSys=GLOBAL   CoordType=Cartesian   XorR=6   Y=1.5   Z=-16.8   SpecialJt=No   GUID=4a13e8bc-a092-4063-89de-88209833cd0e
   Joint=937125   CoordSys=GLOBAL   CoordType=Cartesian   XorR=9   Y=1.5   Z=-16.7344389692158   SpecialJt=No   GUID=ddda63b0-eb38-4d4a-ba81-5964c972eeba
   Joint=937126   CoordSys=GLOBAL   CoordType=Cartesian   XorR=9   Y=1.5   Z=-16.8   SpecialJt=No   GUID=3325ba46-ddc9-41fc-8a89-980fb9cf66ee
   Joint=937127   CoordSys=GLOBAL   CoordType=Cartesian   XorR=-9   Y=4.5   Z=-16.7344389692158   SpecialJt=No   GUID=6e1ac8eb-3929-4828-816d-3908e91d4b41
   Joint=937128   CoordSys=GLOBAL   CoordType=Cartesian   XorR=-9   Y=4.5   Z=-16.8   SpecialJt=No   GUID=ec4178c2-575a-4e07-bdaa-cce8aea2fe20
   Joint=937129   CoordSys=GLOBAL   CoordType=Cartesian   XorR=-6   Y=4.5   Z=-16.7344389692158   SpecialJt=No   GUID=fdd5bd43-f8cd-4576-bd59-386f160a1a51
   Joint=937130   CoordSys=GLOBAL   CoordType=Cartesian   XorR=-6   Y=4.5   Z=-16.8   SpecialJt=No   GUID=bd5d7be0-9d20-44ce-9f01-c04e4bbdddea
   Joint=937131   CoordSys=GLOBAL   CoordType=Cartesian   XorR=-3   Y=4.5   Z=-16.7344389692158   SpecialJt=No   GUID=19bd0a4c-1533-40fa-96d2-5c42f5e659e0
   Joint=937132   CoordSys=GLOBAL   CoordType=Cartesian   XorR=-3   Y=4.5   Z=-16.8   SpecialJt=No   GUID=eb05cbce-1b40-4bdc-97ce-77305efffc91
   Joint=937133   CoordSys=GLOBAL   CoordType=Cartesian   XorR=0   Y=4.5   Z=-16.7344389692158   SpecialJt=No   GUID=6bfac758-c200-4d17-b278-080ba994b4c1
   Joint=937134   CoordSys=GLOBAL   CoordType=Cartesian   XorR=0   Y=4.5   Z=-16.8   SpecialJt=No   GUID=0817d4cd-98c0-4f62-b5bd-c041939f9211
   Joint=937135   CoordSys=GLOBAL   CoordType=Cartesian   XorR=3   Y=4.5   Z=-16.7344389692158   SpecialJt=No   GUID=98d82cc2-7663-4b3d-8ded-f12e5429c09f
   Joint=937136   CoordSys=GLOBAL   CoordType=Cartesian   XorR=3   Y=4.5   Z=-16.8   SpecialJt=No   GUID=c01484e0-abc5-4bab-be15-11c86601d790
   Joint=937137   CoordSys=GLOBAL   CoordType=Cartesian   XorR=6   Y=4.5   Z=-16.7344389692158   SpecialJt=No   GUID=cc38ae5f-701f-406e-84ab-89b58dc8fae9
   Joint=937138   CoordSys=GLOBAL   CoordType=Cartesian   XorR=6   Y=4.5   Z=-16.8   SpecialJt=No   GUID=99e4d712-a5a5-4c81-be72-36d5d84d83be
   Joint=937139   CoordSys=GLOBAL   CoordType=Cartesian   XorR=9   Y=4.5   Z=-16.7344389692158   SpecialJt=No   GUID=fd69b446-84be-4912-a346-1378abbf14c6
   Joint=937140   CoordSys=GLOBAL   CoordType=Cartesian   XorR=9   Y=4.5   Z=-16.8   SpecialJt=No   GUID=740ed2c2-6506-4812-bb99-fc7d2ebe897f
   Joint=937141   CoordSys=GLOBAL   CoordType=Cartesian   XorR=-10   Y=-5   Z=0   SpecialJt=No   GUID=717ab260-842c-4b4a-93f3-23abf3c2c1c5
   Joint=937142   CoordSys=GLOBAL   CoordType=Cartesian   XorR=10   Y=-5   Z=0   SpecialJt=No   GUID=d3f10f35-0f13-4d23-915d-998df1d81097
   Joint=937143   CoordSys=GLOBAL   CoordType=Cartesian   XorR=-10   Y=5   Z=0   SpecialJt=No   GUID=6874dd85-487e-4006-8455-731c588e3d7c
   Joint=937144   CoordSys=GLOBAL   CoordType=Cartesian   XorR=10   Y=5   Z=0   SpecialJt=No   GUID=bdf2fcc5-29d2-4da4-bbbe-7b2f64da38c1
 
TABLE:  "JOINT PATTERN DEFINITIONS"
   Pattern=Default
 
TABLE:  "JOINT RESTRAINT ASSIGNMENTS"
   Joint=937079   U1=Yes   U2=Yes   U3=No   R1=Yes   R2=Yes   R3=Yes
   Joint=937080   U1=No   U2=No   U3=Yes   R1=No   R2=No   R3=No
   Joint=937082   U1=Yes   U2=Yes   U3=No   R1=Yes   R2=Yes   R3=Yes
   Joint=937083   U1=No   U2=No   U3=Yes   R1=No   R2=No   R3=No
   Joint=937085   U1=Yes   U2=Yes   U3=No   R1=Yes   R2=Yes   R3=Yes
   Joint=937086   U1=No   U2=No   U3=Yes   R1=No   R2=No   R3=No
   Joint=937088   U1=Yes   U2=Yes   U3=No   R1=Yes   R2=Yes   R3=Yes
   Joint=937089   U1=No   U2=No   U3=Yes   R1=No   R2=No   R3=No
   Joint=937091   U1=Yes   U2=Yes   U3=No   R1=Yes   R2=Yes   R3=Yes
   Joint=937092   U1=No   U2=No   U3=Yes   R1=No   R2=No   R3=No
   Joint=937094   U1=Yes   U2=Yes   U3=No   R1=Yes   R2=Yes   R3=Yes
   Joint=937095   U1=No   U2=No   U3=Yes   R1=No   R2=No   R3=No
   Joint=937097   U1=Yes   U2=Yes   U3=No   R1=Yes   R2=Yes   R3=Yes
   Joint=937098   U1=No   U2=No   U3=Yes   R1=No   R2=No   R3=No
   Joint=937099   U1=Yes   U2=Yes   U3=No   R1=Yes   R2=Yes   R3=Yes
   Joint=937100   U1=No   U2=No   U3=Yes   R1=No   R2=No   R3=No
   Joint=937101   U1=Yes   U2=Yes   U3=No   R1=Yes   R2=Yes   R3=Yes
   Joint=937102   U1=No   U2=No   U3=Yes   R1=No   R2=No   R3=No
   Joint=937103   U1=Yes   U2=Yes   U3=No   R1=Yes   R2=Yes   R3=Yes
   Joint=937104   U1=No   U2=No   U3=Yes   R1=No   R2=No   R3=No
   Joint=937105   U1=Yes   U2=Yes   U3=No   R1=Yes   R2=Yes   R3=Yes
   Joint=937106   U1=No   U2=No   U3=Yes   R1=No   R2=No   R3=No
   Joint=937107   U1=Yes   U2=Yes   U3=No   R1=Yes   R2=Yes   R3=Yes
   Joint=937108   U1=No   U2=No   U3=Yes   R1=No   R2=No   R3=No
   Joint=937109   U1=Yes   U2=Yes   U3=No   R1=Yes   R2=Yes   R3=Yes
   Joint=937110   U1=No   U2=No   U3=Yes   R1=No   R2=No   R3=No
   Joint=937111   U1=Yes   U2=Yes   U3=No   R1=Yes   R2=Yes   R3=Yes
   Joint=937112   U1=No   U2=No   U3=Yes   R1=No   R2=No   R3=No
   Joint=937113   U1=Yes   U2=Yes   U3=No   R1=Yes   R2=Yes   R3=Yes
   Joint=937114   U1=No   U2=No   U3=Yes   R1=No   R2=No   R3=No
   Joint=937115   U1=Yes   U2=Yes   U3=No   R1=Yes   R2=Yes   R3=Yes
   Joint=937116   U1=No   U2=No   U3=Yes   R1=No   R2=No   R3=No
   Joint=937117   U1=Yes   U2=Yes   U3=No   R1=Yes   R2=Yes   R3=Yes
   Joint=937118   U1=No   U2=No   U3=Yes   R1=No   R2=No   R3=No
   Joint=937119   U1=Yes   U2=Yes   U3=No   R1=Yes   R2=Yes   R3=Yes
   Joint=937120   U1=No   U2=No   U3=Yes   R1=No   R2=No   R3=No
   Joint=937121   U1=Yes   U2=Yes   U3=No   R1=Yes   R2=Yes   R3=Yes
   Joint=937122   U1=No   U2=No   U3=Yes   R1=No   R2=No   R3=No
   Joint=937123   U1=Yes   U2=Yes   U3=No   R1=Yes   R2=Yes   R3=Yes
   Joint=937124   U1=No   U2=No   U3=Yes   R1=No   R2=No   R3=No
# ... 16 like lines cut
 
TABLE:  "LOAD CASE DEFINITIONS"
   Case=DEAD   Type=LinStatic   InitialCond=Zero   DesTypeOpt="Prog Det"   DesignType=Dead   DesActOpt="Prog Det"   DesignAct=Non-Composite   AutoType=None   RunCase=Yes
   Case=MODAL   Type=LinModal   InitialCond=Zero   DesTypeOpt="Prog Det"   DesignType=Other   DesActOpt="Prog Det"   DesignAct=Other   AutoType=None   RunCase=Yes
   Case=LL   Type=LinStatic   InitialCond=Zero   DesTypeOpt="Prog Det"   DesignType=Live   DesActOpt="Prog Det"   DesignAct="Short-Term Composite"   AutoType=None   RunCase=Yes
 
TABLE:  "LOAD PATTERN DEFINITIONS"
   LoadPat=DEAD   DesignType=Dead   SelfWtMult=1
   LoadPat=LL   DesignType=Live   SelfWtMult=0
 
TABLE:  "MASS SOURCE"
   MassSource=MSSSRC1   Elements=Yes   Masses=Yes   Loads=No   IsDefault=Yes
 
TABLE:  "MATERIAL PROPERTIES 01 - GENERAL"
   Material=A706   Type=Rebar   SymType=Uniaxial   TempDepend=No   Color=Gray8Dark   GUID=30185aab-1311-4f4b-9ffe-ddad707d22d9   Notes="ASTM A706 added 8/23/2025 4:27:57 PM"
   Material=BTCT   Type=Concrete   SymType=Isotropic   TempDepend=No   Color=Blue   Notes="Concrete added 24-Feb-23 16:30:01"
   Material=BTCTCOC   Type=Concrete   SymType=Isotropic   TempDepend=No   Color=Blue   Notes="Concrete added 24-Feb-23 16:30:01"
   Material=Steel   Type=Steel   SymType=Isotropic   TempDepend=No   Color=Magenta   GUID=2f952889-4898-4964-97a4-5fb5c5008d33   Notes="Steel added 8/24/2025 2:51:43 PM"
   Material=Tendon   Type=Tendon   SymType=Uniaxial   TempDepend=No   Color=Yellow   GUID=7dfcd093-823e-4b3a-b96f-35d5bcaf456f   Notes="Tendon added 8/24/2025 2:51:43 PM"
 
TABLE:  "MATERIAL PROPERTIES 02 - BASIC MECHANICAL PROPERTIES"
   Material=A706   UnitWeight=7.84904757236607   UnitMass=0.800380070686609   E1=20389019.1580383   A1=1.16999994421006E-05
   Material=BTCT   UnitWeight=2.40276966501002   UnitMass=0.245014307353044   E1=2900000   G12=1208333.33333333   U12=0.2   A1=9.9E-06
   Material=BTCTCOC   UnitWeight=2.40276966501002   UnitMass=0.245014307353044   E1=3800000000   G12=1583333333.33333   U12=0.2   A1=9.9E-06
   Material=Steel   UnitWeight=7.84904757236607   UnitMass=0.800380070686609   E1=20389019.1580383   G12=7841930.44539935   U12=0.3   A1=1.17E-05
   Material=Tendon   UnitWeight=7.84904757236607   UnitMass=0.800380070686609   E1=20037484.3449687   A1=1.16999994421006E-05
 
TABLE:  "MATERIAL PROPERTIES 03A - STEEL DATA"
   Material=Steel   Fy=35153.4813069626   Fu=45699.5256990514   EffFy=38668.8294376589   EffFu=50269.4782689565   SSCurveOpt=Simple   SSHysType=Kinematic   SHard=0.015   SMax=0.11   SRup=0.17   FinalSlope=-0.1   CoupModType="Von Mises"
 
TABLE:  "MATERIAL PROPERTIES 03B - CONCRETE DATA"
   Material=BTCT   Fc=2812.27850455701   eFc=2812.27850455701   LtWtConc=No   SSCurveOpt=Mander   SSHysType=Takeda   SFc=0.002   SCap=0.005   FinalSlope=-0.1   FAngle=0   DAngle=0   CoupModType="Modified Darwin-Pecknold"
   Material=BTCTCOC   Fc=2812.27850455701   eFc=2812.27850455701   LtWtConc=No   SSCurveOpt=Mander   SSHysType=Takeda   SFc=0.002   SCap=0.005   FinalSlope=-0.1   FAngle=0   DAngle=0   CoupModType="Modified Darwin-Pecknold"
 
TABLE:  "MATERIAL PROPERTIES 03E - REBAR DATA"
   Material=A706   Fy=42184.1775683551   Fu=56245.5700911402   EffFy=46402.5953251907   EffFu=61870.1271002542   SSCurveOpt=Simple   SSHysType=Kinematic   SHard=0.011   SCap=0.11   FinalSlope=-0.1   UseCTDef=No   CoupModType="Von Mises"
 
TABLE:  "MATERIAL PROPERTIES 03F - TENDON DATA"
   Material=Tendon   Fy=172322.365366731   Fu=189828.799057598   SSCurveOpt="270 ksi"   SSHysType=Kinematic   FinalSlope=-0.1   CoupModType="Von Mises"
 
TABLE:  "MATERIAL PROPERTIES 03J - COUPLED NONLINEAR VON MISES DATA"
   Material=A706   YieldStress=46402.5953251907   LinIsoHard=No   LinKinHard=No   NLIsoSaHard=No
   Material=Steel   YieldStress=38668.8294376589   LinIsoHard=No   LinKinHard=No   NLIsoSaHard=No
   Material=Tendon   YieldStress=172322.365366731   LinIsoHard=No   LinKinHard=No   NLIsoSaHard=No
 
TABLE:  "MATERIAL PROPERTIES 06 - DAMPING PARAMETERS"
   Material=A706   ModalRatio=0   VisMass=0   VisStiff=0   HysMass=0   HysStiff=0
   Material=BTCT   ModalRatio=0   VisMass=0   VisStiff=0   HysMass=0   HysStiff=0
   Material=BTCTCOC   ModalRatio=0   VisMass=0   VisStiff=0   HysMass=0   HysStiff=0
   Material=Steel   ModalRatio=0   VisMass=0   VisStiff=0   HysMass=0   HysStiff=0
   Material=Tendon   ModalRatio=0   VisMass=0   VisStiff=0   HysMass=0   HysStiff=0
 
TABLE:  "MATERIAL PROPERTIES 09 - ACCEPTANCE CRITERIA"
   Material=A706   IOTens=0.01   LSTens=0.02   CPTens=0.05   IOComp=-0.005   LSComp=-0.01   CPComp=-0.02
   Material=BTCT   IOTens=0.01   LSTens=0.02   CPTens=0.05   IOComp=-0.003   LSComp=-0.006   CPComp=-0.015   IgnoreTens=Yes
   Material=BTCTCOC   IOTens=0.01   LSTens=0.02   CPTens=0.05   IOComp=-0.003   LSComp=-0.006   CPComp=-0.015   IgnoreTens=Yes
   Material=Steel   IOTens=0.01   LSTens=0.02   CPTens=0.05   IOComp=-0.005   LSComp=-0.01   CPComp=-0.02
   Material=Tendon   IOTens=0.015   LSTens=0.023   CPTens=0.03   IOComp=-0.015   LSComp=-0.023   CPComp=-0.03
 
TABLE:  "OPTIONS - COLORS - DISPLAY"
   DeviceType=Screen   Points=Blue   LinesFrame=Blue   LinesFrmDL=Blue   LinesCable=Green   LinesTendon=Green   SpringLinks=Green   Restraints=Green   Releases=Green   Axes=Cyan   Text=Black   ShadowLines=Gray8Dark   GuideLines=Gray8Dark _
        Highlight=Red   Selection=10504778   AreaFillBot=Red   AreaFillTop=16744703   AreaFillSd=Red   AreaEdge=DarkRed   SolidF1=Red   SolidF2=Blue   SolidF3=Green   SolidF4=Yellow   SolidF5=White   SolidF6=Cyan   SolidEdge=DarkRed _
        Floor=Gray4   Background=White   BGLowLeft=White   BGLowRight=White   BGUpRight=White   Darkness=0.5
   DeviceType=Printer   Points=Gray8Dark   LinesFrame=Black   LinesFrmDL=Gray4   LinesCable=Black   LinesTendon=Black   SpringLinks=Gray8Dark   Restraints=Gray8Dark   Releases=Gray4   Axes=Black   Text=Black   ShadowLines=Gray4 _
        GuideLines=Gray4   Highlight=Black   Selection=Black   AreaFillBot=Gray4   AreaFillTop=Gray8Dark   AreaFillSd=Gray4   AreaEdge=Black   SolidF1=Gray1Light   SolidF2=Gray2   SolidF3=Gray3   SolidF4=Gray4   SolidF5=Gray5 _
        SolidF6=Gray6   SolidEdge=Black   Floor=Gray4   Background=White   BGLowLeft=White   BGLowRight=White   BGUpRight=White   Darkness=0.5
   DeviceType="Color Printer"   Points=Blue   LinesFrame=Blue   LinesFrmDL=Blue   LinesCable=Green   LinesTendon=Green   SpringLinks=Green   Restraints=Green   Releases=Green   Axes=Cyan   Text=Black   ShadowLines=Gray8Dark _
        GuideLines=Gray8Dark   Highlight=Red   Selection=10504778   AreaFillBot=Red   AreaFillTop=16744703   AreaFillSd=Red   AreaEdge=DarkRed   SolidF1=Red   SolidF2=Blue   SolidF3=Green   SolidF4=Yellow   SolidF5=White   SolidF6=Cyan _
        SolidEdge=DarkRed   Floor=Gray4   Background=White   BGLowLeft=White   BGLowRight=White   BGUpRight=White   Darkness=0.5
 
TABLE:  "OPTIONS - COLORS - OUTPUT"
   DeviceType=Screen   Contour1=13107400   Contour2=6553828   Contour3=Red   Contour4=16639   Contour5=Orange   Contour6=43775   Contour7=54527   Contour8=Yellow   Contour9=65408   Contour10=Green   Contour11=8453888   Contour12=Cyan _
        Contour13=16755200   Contour14=16733440   Contour15=Blue   Transpare=0.5   Ratio1=Cyan   Ratio2=Green   Ratio3=Yellow   Ratio4=Orange   Ratio5=Red   RatioNotD=Gray4   RatioNotC=Red   RatioVal1=0.5   RatioVal2=0.7   RatioVal3=0.9 _
        RatioVal4=1   DFillPos=Blue   DFillNeg=Red   DFillRPos=Green   DFillRNeg=Green
   DeviceType=Printer   Contour1=Black   Contour2=3158064   Contour3=4210752   Contour4=5263440   Contour5=6316128   Contour6=7368816   Contour7=Gray8Dark   Contour8=Gray7   Contour9=Gray6   Contour10=Gray5   Contour11=Gray4 _
        Contour12=Gray3   Contour13=Gray2   Contour14=Gray1Light   Contour15=White   Transpare=0   Ratio1=Gray2   Ratio2=Gray4   Ratio3=Gray8Dark   Ratio4=4210752   Ratio5=Black   RatioNotD=Gray4   RatioNotC=Black   RatioVal1=0.5 _
        RatioVal2=0.7   RatioVal3=0.9   RatioVal4=1   DFillPos=Gray8Dark   DFillNeg=Gray8Dark   DFillRPos=4210752   DFillRNeg=4210752
   DeviceType="Color Printer"   Contour1=13107400   Contour2=6553828   Contour3=Red   Contour4=16639   Contour5=Orange   Contour6=43775   Contour7=54527   Contour8=Yellow   Contour9=65408   Contour10=Green   Contour11=8453888 _
        Contour12=Cyan   Contour13=16755200   Contour14=16733440   Contour15=Blue   Transpare=0   Ratio1=Cyan   Ratio2=Green   Ratio3=Yellow   Ratio4=Orange   Ratio5=Red   RatioNotD=Gray4   RatioNotC=Red   RatioVal1=0.5   RatioVal2=0.7 _
        RatioVal3=0.9   RatioVal4=1   DFillPos=Blue   DFillNeg=Red   DFillRPos=Green   DFillRNeg=Green
 
TABLE:  "OVERWRITES - CONCRETE DESIGN - CSA-A233-14"
   Frame=1086759   DesignSect="Program Determined"   FrameType="Program Determined"   RLLF=0   XLMajor=0   XLMinor=0   XKMajor=0   XKMinor=0   CmMajor=0   CmMinor=0   DbMajor=0   DbMinor=0   DsMajor=0   DsMinor=0   Rd=0   Ro=0   MaxAggSize=0
   Frame=1086760   DesignSect="Program Determined"   FrameType="Program Determined"   RLLF=0   XLMajor=0   XLMinor=0   XKMajor=0   XKMinor=0   CmMajor=0   CmMinor=0   DbMajor=0   DbMinor=0   DsMajor=0   DsMinor=0   Rd=0   Ro=0   MaxAggSize=0
   Frame=1086761   DesignSect="Program Determined"   FrameType="Program Determined"   RLLF=0   XLMajor=0   XLMinor=0   XKMajor=0   XKMinor=0   CmMajor=0   CmMinor=0   DbMajor=0   DbMinor=0   DsMajor=0   DsMinor=0   Rd=0   Ro=0   MaxAggSize=0
   Frame=1086762   DesignSect="Program Determined"   FrameType="Program Determined"   RLLF=0   XLMajor=0   XLMinor=0   XKMajor=0   XKMinor=0   CmMajor=0   CmMinor=0   DbMajor=0   DbMinor=0   DsMajor=0   DsMinor=0   Rd=0   Ro=0   MaxAggSize=0
   Frame=1086763   DesignSect="Program Determined"   FrameType="Program Determined"   RLLF=0   XLMajor=0   XLMinor=0   XKMajor=0   XKMinor=0   CmMajor=0   CmMinor=0   DbMajor=0   DbMinor=0   DsMajor=0   DsMinor=0   Rd=0   Ro=0   MaxAggSize=0
   Frame=1086764   DesignSect="Program Determined"   FrameType="Program Determined"   RLLF=0   XLMajor=0   XLMinor=0   XKMajor=0   XKMinor=0   CmMajor=0   CmMinor=0   DbMajor=0   DbMinor=0   DsMajor=0   DsMinor=0   Rd=0   Ro=0   MaxAggSize=0
   Frame=1086765   DesignSect="Program Determined"   FrameType="Program Determined"   RLLF=0   XLMajor=0   XLMinor=0   XKMajor=0   XKMinor=0   CmMajor=0   CmMinor=0   DbMajor=0   DbMinor=0   DsMajor=0   DsMinor=0   Rd=0   Ro=0   MaxAggSize=0
   Frame=1086766   DesignSect="Program Determined"   FrameType="Program Determined"   RLLF=0   XLMajor=0   XLMinor=0   XKMajor=0   XKMinor=0   CmMajor=0   CmMinor=0   DbMajor=0   DbMinor=0   DsMajor=0   DsMinor=0   Rd=0   Ro=0   MaxAggSize=0
   Frame=1086767   DesignSect="Program Determined"   FrameType="Program Determined"   RLLF=0   XLMajor=0   XLMinor=0   XKMajor=0   XKMinor=0   CmMajor=0   CmMinor=0   DbMajor=0   DbMinor=0   DsMajor=0   DsMinor=0   Rd=0   Ro=0   MaxAggSize=0
   Frame=1086768   DesignSect="Program Determined"   FrameType="Program Determined"   RLLF=0   XLMajor=0   XLMinor=0   XKMajor=0   XKMinor=0   CmMajor=0   CmMinor=0   DbMajor=0   DbMinor=0   DsMajor=0   DsMinor=0   Rd=0   Ro=0   MaxAggSize=0
   Frame=1086769   DesignSect="Program Determined"   FrameType="Program Determined"   RLLF=0   XLMajor=0   XLMinor=0   XKMajor=0   XKMinor=0   CmMajor=0   CmMinor=0   DbMajor=0   DbMinor=0   DsMajor=0   DsMinor=0   Rd=0   Ro=0   MaxAggSize=0
   Frame=1086770   DesignSect="Program Determined"   FrameType="Program Determined"   RLLF=0   XLMajor=0   XLMinor=0   XKMajor=0   XKMinor=0   CmMajor=0   CmMinor=0   DbMajor=0   DbMinor=0   DsMajor=0   DsMinor=0   Rd=0   Ro=0   MaxAggSize=0
   Frame=1086771   DesignSect="Program Determined"   FrameType="Program Determined"   RLLF=0   XLMajor=0   XLMinor=0   XKMajor=0   XKMinor=0   CmMajor=0   CmMinor=0   DbMajor=0   DbMinor=0   DsMajor=0   DsMinor=0   Rd=0   Ro=0   MaxAggSize=0
   Frame=1086772   DesignSect="Program Determined"   FrameType="Program Determined"   RLLF=0   XLMajor=0   XLMinor=0   XKMajor=0   XKMinor=0   CmMajor=0   CmMinor=0   DbMajor=0   DbMinor=0   DsMajor=0   DsMinor=0   Rd=0   Ro=0   MaxAggSize=0
   Frame=1086773   DesignSect="Program Determined"   FrameType="Program Determined"   RLLF=0   XLMajor=0   XLMinor=0   XKMajor=0   XKMinor=0   CmMajor=0   CmMinor=0   DbMajor=0   DbMinor=0   DsMajor=0   DsMinor=0   Rd=0   Ro=0   MaxAggSize=0
   Frame=1086774   DesignSect="Program Determined"   FrameType="Program Determined"   RLLF=0   XLMajor=0   XLMinor=0   XKMajor=0   XKMinor=0   CmMajor=0   CmMinor=0   DbMajor=0   DbMinor=0   DsMajor=0   DsMinor=0   Rd=0   Ro=0   MaxAggSize=0
   Frame=1086775   DesignSect="Program Determined"   FrameType="Program Determined"   RLLF=0   XLMajor=0   XLMinor=0   XKMajor=0   XKMinor=0   CmMajor=0   CmMinor=0   DbMajor=0   DbMinor=0   DsMajor=0   DsMinor=0   Rd=0   Ro=0   MaxAggSize=0
   Frame=1086776   DesignSect="Program Determined"   FrameType="Program Determined"   RLLF=0   XLMajor=0   XLMinor=0   XKMajor=0   XKMinor=0   CmMajor=0   CmMinor=0   DbMajor=0   DbMinor=0   DsMajor=0   DsMinor=0   Rd=0   Ro=0   MaxAggSize=0
   Frame=1086777   DesignSect="Program Determined"   FrameType="Program Determined"   RLLF=0   XLMajor=0   XLMinor=0   XKMajor=0   XKMinor=0   CmMajor=0   CmMinor=0   DbMajor=0   DbMinor=0   DsMajor=0   DsMinor=0   Rd=0   Ro=0   MaxAggSize=0
   Frame=1086778   DesignSect="Program Determined"   FrameType="Program Determined"   RLLF=0   XLMajor=0   XLMinor=0   XKMajor=0   XKMinor=0   CmMajor=0   CmMinor=0   DbMajor=0   DbMinor=0   DsMajor=0   DsMinor=0   Rd=0   Ro=0   MaxAggSize=0
# ... 60 like lines cut
 
TABLE:  "PREFERENCES - ALUMINUM DESIGN - AA 2015"
   THDesign=Envelopes   SRatioLimit=1   Provision=ASD   LatFact=1.33333333333333   UseLatFact=No   Bridge=No   OmegaTy=1.65   OmegaTr=1.95   OmegaC=1.65   OmegaBo=1.65   OmegaBr=1.95   OmegaVo=1.65   OmegaVr=1.95
 
TABLE:  "PREFERENCES - COLD FORMED DESIGN - AISI-ASD96"
   THDesign=Envelopes   FrameType="Braced Frame"   SRatioLimit=1   MaxIter=1   OmegaBS=1.67   OmegaBUS=1.67   OmegaBLTB=1.67   OmegaVS=1.67   OmegaVNS=1.5   OmegaT=1.67   OmegaC=1.8
 
TABLE:  "PREFERENCES - CONCRETE DESIGN - CSA-A233-14"
   THDesign=Envelopes   NumCurves=24   NumPoints=11   MinEccen=Yes   BCCDesign=Yes   CTorsion=Yes   PatLLF=0.75   UFLimit=0.95   PhiS=0.85   PhiC=0.65
 
TABLE:  "PREFERENCES - CONCRETE SHELL DESIGN - EUROCODE 2-2004"
   Country="CEN Default"   GammaS=1.15   GammaC=1.5   AlphaCC=1
 
TABLE:  "PREFERENCES - DIMENSIONAL"
   MergeTol=0.001   FineGrid=0.25   Nudge=0.25   SelectTol=3   SnapTol=12   SLineThick=1   PLineThick=4   MaxFont=8   MinFont=3   AutoZoom=10   ShrinkFact=70   TextFileLen=240
 
TABLE:  "PREFERENCES - STEEL DESIGN - AISC 360-10"
   THDesign=Envelopes   FrameType=SMF   PatLLF=0.75   SRatioLimit=0.95   MaxIter=1   SDC=D   SeisCode=No   SeisLoad=No   ImpFactor=1   SystemRho=1   SystemSds=0.5   SystemR=8   SystemCd=5.5   Omega0=3   Provision=LRFD _
        AMethod="Direct Analysis"   SOMethod="General 2nd Order"   SRMethod="Tau-b Fixed"   NLCoeff=0.002   PhiB=0.9   PhiC=0.9   PhiTY=0.9   PhiTF=0.75   PhiV=0.9   PhiVRolledI=1   PhiVT=0.9   PlugWeld=Yes   HSSWelding=ERW   HSSReduceT=No _
        CheckDefl=No   DLRat=120   SDLAndLLRat=120   LLRat=360   TotalRat=240   NetRat=240
 
TABLE:  "PROGRAM CONTROL"
   ProgramName=SAP2000   Version=24.0.0   CurrUnits="Tonf, m, C"   SteelCode="AISC 360-10"   ConcCode="CSA A23.3-14"   AlumCode="AA 2015"   ColdCode=AISI-ASD96   RegenHinge=Yes
 
TABLE:  "PROJECT INFORMATION"
   Item="Company Name"   Data=po
   Item="Client Name"
   Item="Project Name"
   Item="Project Number"
   Item="Model Name"
   Item="Model Description"
   Item="Revision Number"
   Item="Frame Type"
   Item=Engineer
   Item=Checker
   Item=Supervisor
   Item="Issue Code"
   Item="Design Code"
 
TABLE:  "REBAR SIZES"
   RebarID=#2   Area=3.2258E-05   Diameter=0.00635
   RebarID=#3   Area=7.09675996154547E-05   Diameter=0.009525
   RebarID=#4   Area=0.000129032001922727   Diameter=0.0127
   RebarID=#5   Area=0.000199999601538181   Diameter=0.015875
   RebarID=#6   Area=0.000283870398461819   Diameter=0.01905
   RebarID=#7   Area=0.000387096015381813   Diameter=0.022225
   RebarID=#8   Area=0.000509676413843632   Diameter=0.0254
   RebarID=#9   Area=0.00064516   Diameter=0.0286512005329132
   RebarID=#10   Area=0.00081935318769455   Diameter=0.0322579995155334
   RebarID=#11   Area=0.00100644956308365   Diameter=0.0358139991521835
   RebarID=#14   Area=0.00145161   Diameter=0.0430021989583969
   RebarID=#18   Area=0.00258064   Diameter=0.0573277992248535
   RebarID=10M   Area=0.000100000004162606   Diameter=0.0113000003604438
   RebarID=15M   Area=0.000200000008325212   Diameter=0.0160000002402959
   RebarID=20M   Area=0.000300000012487818   Diameter=0.0195000002928606
   RebarID=25M   Area=0.000500000020813031   Diameter=0.0252000011414055
   RebarID=30M   Area=0.000700000029138243   Diameter=0.0299000000675832
   RebarID=35M   Area=0.00100000004162606   Diameter=0.0357000012990997
   RebarID=45M   Area=0.00150000006243909   Diameter=0.0437000014192476
   RebarID=55M   Area=0.00250000010406515   Diameter=0.056400002372922
   RebarID=6d   Area=2.83000004150781E-05   Diameter=0.00600000009011096
   RebarID=8d   Area=5.03000013308514E-05   Diameter=0.00800000012014795
   RebarID=10d   Area=7.85000032676458E-05   Diameter=0.0100000001501849
   RebarID=12d   Area=0.000113000004703745   Diameter=0.0120000001802219
   RebarID=14d   Area=0.000154000006410413   Diameter=0.0140000002102589
   RebarID=16d   Area=0.000201000008366838   Diameter=0.0160000002402959
   RebarID=20d   Area=0.000314000013070583   Diameter=0.0200000003003699
   RebarID=25d   Area=0.000491000020438396   Diameter=0.0250000003754623
   RebarID=26d   Area=0.000531000022103439   Diameter=0.0260000003904808
   RebarID=28d   Area=0.000616000025641654   Diameter=0.0280000004205178
   RebarID=N12   Area=0.000113000004703745   Diameter=0.0120000001802219
   RebarID=N16   Area=0.000201000008366838   Diameter=0.0160000002402959
   RebarID=N20   Area=0.000314000013070583   Diameter=0.0200000003003699
   RebarID=N24   Area=0.00045200001881498   Diameter=0.0240000003604438
   RebarID=N28   Area=0.000616000025641654   Diameter=0.0280000004205178
   RebarID=N32   Area=0.000804000033467353   Diameter=0.0320000004805918
   RebarID=N36   Area=0.00102000004245858   Diameter=0.0360000005406658
 
TABLE:  "SOLID PROPERTY DEFINITIONS"
   SolidProp=Solid1   Material=BTCT   MatAngleA=0   MatAngleB=0   MatAngleC=0   InComp=Yes   Color=Gray8Dark
 
END TABLE DATA
