File D:\OneDrive\Nature-Inspired Optimization Algorithms\Multiobjectives\MOSFOA\MPJ_Sap\W05\MPJ_5.$2k was saved on m/d/yy at h:mm:ss
 
TABLE:  "ACTIVE DEGREES OF FREEDOM"
   UX=Yes   UY=Yes   UZ=Yes   RX=Yes   RY=Yes   RZ=Yes
 
TABLE:  "ANALYSIS OPTIONS"
   Solver=Advanced   SolverProc=Auto   Force32Bit=No   StiffCase=None   GeomMod=None   HingeOpt="In Elements"   NumAThreads=0   MaxFileSize=0   NumDThreads=0   NumRThreads=0   UseMMFiles="Program Determined"   AllowDiff=No
 
TABLE:  "AREA AUTO MESH ASSIGNMENTS"
   Area=1   MeshType="Number of Elements"   MeshGroup=ALL   Number1=3   Number2=3   LocalEdge=No   LocalFace=No   SuppEdge=No   SuppFace=No   SubMesh=No
   Area=2   MeshType="Number of Elements"   MeshGroup=ALL   Number1=3   Number2=3   LocalEdge=No   LocalFace=No   SuppEdge=No   SuppFace=No   SubMesh=No
   Area=3   MeshType="Number of Elements"   MeshGroup=ALL   Number1=3   Number2=3   LocalEdge=No   LocalFace=No   SuppEdge=No   SuppFace=No   SubMesh=No
   Area=4   MeshType="Number of Elements"   MeshGroup=ALL   Number1=3   Number2=3   LocalEdge=No   LocalFace=No   SuppEdge=No   SuppFace=No   SubMesh=No
   Area=5   MeshType="Number of Elements"   MeshGroup=ALL   Number1=3   Number2=3   LocalEdge=No   LocalFace=No   SuppEdge=No   SuppFace=No   SubMesh=No
   Area=6   MeshType="Number of Elements"   MeshGroup=ALL   Number1=3   Number2=3   LocalEdge=No   LocalFace=No   SuppEdge=No   SuppFace=No   SubMesh=No
   Area=7   MeshType="Number of Elements"   MeshGroup=ALL   Number1=3   Number2=3   LocalEdge=No   LocalFace=No   SuppEdge=No   SuppFace=No   SubMesh=No
   Area=8   MeshType="Number of Elements"   MeshGroup=ALL   Number1=3   Number2=3   LocalEdge=No   LocalFace=No   SuppEdge=No   SuppFace=No   SubMesh=No
   Area=9   MeshType="Number of Elements"   MeshGroup=ALL   Number1=3   Number2=3   LocalEdge=No   LocalFace=No   SuppEdge=No   SuppFace=No   SubMesh=No
   Area=10   MeshType="Number of Elements"   MeshGroup=ALL   Number1=3   Number2=3   LocalEdge=No   LocalFace=No   SuppEdge=No   SuppFace=No   SubMesh=No
   Area=11   MeshType="Number of Elements"   MeshGroup=ALL   Number1=3   Number2=3   LocalEdge=No   LocalFace=No   SuppEdge=No   SuppFace=No   SubMesh=No
   Area=12   MeshType="Number of Elements"   MeshGroup=ALL   Number1=3   Number2=3   LocalEdge=No   LocalFace=No   SuppEdge=No   SuppFace=No   SubMesh=No
   Area=13   MeshType="Number of Elements"   MeshGroup=ALL   Number1=3   Number2=3   LocalEdge=No   LocalFace=No   SuppEdge=No   SuppFace=No   SubMesh=No
   Area=14   MeshType="Number of Elements"   MeshGroup=ALL   Number1=3   Number2=3   LocalEdge=No   LocalFace=No   SuppEdge=No   SuppFace=No   SubMesh=No
   Area=15   MeshType="Number of Elements"   MeshGroup=ALL   Number1=3   Number2=3   LocalEdge=No   LocalFace=No   SuppEdge=No   SuppFace=No   SubMesh=No
   Area=16   MeshType="Number of Elements"   MeshGroup=ALL   Number1=3   Number2=3   LocalEdge=No   LocalFace=No   SuppEdge=No   SuppFace=No   SubMesh=No
   Area=17   MeshType="Number of Elements"   MeshGroup=ALL   Number1=3   Number2=3   LocalEdge=No   LocalFace=No   SuppEdge=No   SuppFace=No   SubMesh=No
   Area=18   MeshType="Number of Elements"   MeshGroup=ALL   Number1=3   Number2=3   LocalEdge=No   LocalFace=No   SuppEdge=No   SuppFace=No   SubMesh=No
 
TABLE:  "AREA LOADS - UNIFORM"
   Area=1   LoadPat=LL   CoordSys=GLOBAL   Dir=Gravity   UnifLoad=1.00034158457019
   Area=2   LoadPat=LL   CoordSys=GLOBAL   Dir=Gravity   UnifLoad=1.00034158457019
   Area=3   LoadPat=LL   CoordSys=GLOBAL   Dir=Gravity   UnifLoad=1.00034158457019
   Area=4   LoadPat=LL   CoordSys=GLOBAL   Dir=Gravity   UnifLoad=1.00034158457019
   Area=5   LoadPat=LL   CoordSys=GLOBAL   Dir=Gravity   UnifLoad=1.00034158457019
   Area=6   LoadPat=LL   CoordSys=GLOBAL   Dir=Gravity   UnifLoad=1.00034158457019
   Area=7   LoadPat=LL   CoordSys=GLOBAL   Dir=Gravity   UnifLoad=1.00034158457019
   Area=8   LoadPat=LL   CoordSys=GLOBAL   Dir=Gravity   UnifLoad=1.00034158457019
   Area=9   LoadPat=LL   CoordSys=GLOBAL   Dir=Gravity   UnifLoad=1.00034158457019
   Area=10   LoadPat=LL   CoordSys=GLOBAL   Dir=Gravity   UnifLoad=1.00034158457019
   Area=11   LoadPat=LL   CoordSys=GLOBAL   Dir=Gravity   UnifLoad=1.00034158457019
   Area=12   LoadPat=LL   CoordSys=GLOBAL   Dir=Gravity   UnifLoad=1.00034158457019
   Area=13   LoadPat=LL   CoordSys=GLOBAL   Dir=Gravity   UnifLoad=1.00034158457019
   Area=14   LoadPat=LL   CoordSys=GLOBAL   Dir=Gravity   UnifLoad=1.00034158457019
   Area=15   LoadPat=LL   CoordSys=GLOBAL   Dir=Gravity   UnifLoad=1.00034158457019
   Area=16   LoadPat=LL   CoordSys=GLOBAL   Dir=Gravity   UnifLoad=1.00034158457019
   Area=17   LoadPat=LL   CoordSys=GLOBAL   Dir=Gravity   UnifLoad=1.00034158457019
   Area=18   LoadPat=LL   CoordSys=GLOBAL   Dir=Gravity   UnifLoad=1.00034158457019
 
TABLE:  "AREA SECTION ASSIGNMENTS"
   Area=1   Section=Deck   MatProp=Default
   Area=2   Section=Deck   MatProp=Default
   Area=3   Section=Deck   MatProp=Default
   Area=4   Section=Deck   MatProp=Default
   Area=5   Section=Deck   MatProp=Default
   Area=6   Section=Deck   MatProp=Default
   Area=7   Section=Deck   MatProp=Default
   Area=8   Section=Deck   MatProp=Default
   Area=9   Section=Deck   MatProp=Default
   Area=10   Section=Deck   MatProp=Default
   Area=11   Section=Deck   MatProp=Default
   Area=12   Section=Deck   MatProp=Default
   Area=13   Section=Deck   MatProp=Default
   Area=14   Section=Deck   MatProp=Default
   Area=15   Section=Deck   MatProp=Default
   Area=16   Section=Deck   MatProp=Default
   Area=17   Section=Deck   MatProp=Default
   Area=18   Section=Deck   MatProp=Default
 
TABLE:  "AREA SECTION PROPERTIES"
   Section=Deck   Material=BTCT   MatAngle=0   AreaType=Shell   Type=Shell-Thin   DrillDOF=Yes   Thickness=0.3   BendThick=0.3   Color=Green   F11Mod=1   F22Mod=1   F12Mod=1   M11Mod=1   M22Mod=1   M12Mod=1   V13Mod=1   V23Mod=1   MMod=1 _
        WMod=1   Notes="Added 24-Feb-23 16:56:47"
 
TABLE:  "AREA SECTION PROPERTY DESIGN PARAMETERS"
   Section=Deck   RebarMat=None   RebarOpt=Default
 
TABLE:  "AREA SECTION PROPERTY - TIME DEPENDENT"
   Section=Deck   TypeSize=User   AutoSFSize=1   UserValSize=0.1
 
TABLE:  "AUTO COMBINATION OPTION DATA 01 - GENERAL"
   DesignType=Concrete   AutoGen=Yes
 
TABLE:  "AUTO COMBINATION OPTION DATA 02 - USER DATA"
   DesignType=Concrete   LSType=Strength   LCName=DEAD
   DesignType=Concrete   LSType=Strength   LCName=LL
 
TABLE:  "AUTO WAVE 3 - WAVE CHARACTERISTICS - GENERAL"
   WaveChar=Default   WaveType="From Theory"   KinFactor=1   SWaterDepth=45   WaveHeight=18   WavePeriod=12   WaveTheory=Linear
 
TABLE:  "CASE - MODAL 1 - GENERAL"
   Case=MODAL   ModeType=Eigen   MaxNumModes=12   MinNumModes=1   EigenShift=0   EigenCutoff=0   EigenTol=1E-09   AutoShift=Yes
 
TABLE:  "CASE - STATIC 1 - LOAD ASSIGNMENTS"
   Case=DEAD   LoadType="Load pattern"   LoadName=DEAD   LoadSF=1
   Case=LL   LoadType="Load pattern"   LoadName=LL   LoadSF=1
 
TABLE:  "COMBINATION DEFINITIONS"
   ComboName=COMB1   ComboType="Linear Add"   AutoDesign=No   CaseName=DEAD   ScaleFactor=1   SteelDesign=None   ConcDesign=Strength   AlumDesign=None   ColdDesign=None
   ComboName=COMB2   ComboType="Linear Add"   AutoDesign=No   CaseName=DEAD   ScaleFactor=1   SteelDesign=None   ConcDesign=Strength   AlumDesign=None   ColdDesign=None
   ComboName=COMB2   CaseName=LL   ScaleFactor=1
   ComboName=BAO   ComboType=Envelope   AutoDesign=No   CaseName=COMB1   ScaleFactor=1   SteelDesign=None   ConcDesign=Strength   AlumDesign=None   ColdDesign=None
   ComboName=BAO   CaseName=COMB2   ScaleFactor=1
   ComboName=DCON1   ComboType="Linear Add"   AutoDesign=Yes   CaseName=DEAD   ScaleFactor=1.4   SteelDesign=None   ConcDesign=Strength   AlumDesign=None   ColdDesign=None   GUID=bb4fff9a-98b5-44d1-9fde-34d92700a8e9   Notes="Dead Only; Strength"
   ComboName=DCON2   ComboType="Linear Add"   AutoDesign=Yes   CaseName=DEAD   ScaleFactor=1.25   SteelDesign=None   ConcDesign=Strength   AlumDesign=None   ColdDesign=None   GUID=505bcda7-6fac-4dd0-b03e-c591d1ffc6ce   Notes="Dead + Live; Strength"
   ComboName=DCON2   CaseName=LL   ScaleFactor=1.5
 
TABLE:  "CONNECTIVITY - AREA"
   Area=1   Joint1=50   Joint2=21   Joint3=2   Joint4=1   GUID=9d31eedb-d2e7-49d3-b650-031f0f991c77
   Area=2   Joint1=1   Joint2=2   Joint3=4   Joint4=3   GUID=ded915e5-5c3d-4e31-8082-ca216d5fa5c3
   Area=3   Joint1=3   Joint2=4   Joint3=6   Joint4=5   GUID=16ab3757-8f11-4cc0-8987-27ac88466a6a
   Area=4   Joint1=5   Joint2=6   Joint3=8   Joint4=7   GUID=aa4c7453-4643-4cda-9ee9-61834f2d6243
   Area=5   Joint1=7   Joint2=8   Joint3=10   Joint4=9   GUID=7a04134f-75a8-47a6-9304-8d8863a973e3
   Area=6   Joint1=9   Joint2=10   Joint3=23   Joint4=51   GUID=4d2eb721-5994-4308-9748-9be86fb466e8
   Area=7   Joint1=21   Joint2=22   Joint3=11   Joint4=2   GUID=71071244-3289-422a-b635-a2b627318bfb
   Area=8   Joint1=2   Joint2=11   Joint3=12   Joint4=4   GUID=5a9b2e34-b509-4481-9283-a8a47c895831
   Area=9   Joint1=4   Joint2=12   Joint3=13   Joint4=6   GUID=e664f846-367e-43bd-887c-27259fd23107
   Area=10   Joint1=6   Joint2=13   Joint3=14   Joint4=8   GUID=17d31c31-7483-44dd-8abc-9ea91fa8e9c9
   Area=11   Joint1=8   Joint2=14   Joint3=15   Joint4=10   GUID=55b99ee7-2270-4494-a60d-92f5d58b5c1b
   Area=12   Joint1=10   Joint2=15   Joint3=24   Joint4=23   GUID=04404730-4f11-4923-9e73-c24a717f2d44
   Area=13   Joint1=22   Joint2=52   Joint3=16   Joint4=11   GUID=a2faebec-146b-485a-91fc-ae6442bb54ce
   Area=14   Joint1=11   Joint2=16   Joint3=17   Joint4=12   GUID=85a4c16b-ba69-4560-ba1f-55a9d74acce5
   Area=15   Joint1=12   Joint2=17   Joint3=18   Joint4=13   GUID=2bb636e3-f856-4701-98d4-632decd9cd2a
   Area=16   Joint1=13   Joint2=18   Joint3=19   Joint4=14   GUID=eebe6823-8a1e-416d-9437-bba730b86c3d
   Area=17   Joint1=14   Joint2=19   Joint3=20   Joint4=15   GUID=0edbc6ad-f70c-4faa-9f1f-6bcee2c8ace5
   Area=18   Joint1=15   Joint2=20   Joint3=53   Joint4=24   GUID=981e0619-4e2c-448b-89eb-5bf1cd57987c
 
TABLE:  "CONNECTIVITY - FRAME"
   Frame=1   JointI=1   JointJ=2   IsCurved=No   GUID=75a0bdaf-e698-4dff-b29c-93e244f1b5a9
   Frame=2   JointI=3   JointJ=4   IsCurved=No   GUID=62e8a9c9-2b49-4118-94db-fa416e99ceab
   Frame=3   JointI=5   JointJ=6   IsCurved=No   GUID=68b1ef19-2de9-4453-940b-3003c0e47134
   Frame=4   JointI=7   JointJ=8   IsCurved=No   GUID=e0ffc093-a977-47ae-b205-1acbf221b9ba
   Frame=5   JointI=9   JointJ=10   IsCurved=No   GUID=e4c11c62-2035-4e99-86b1-7b8b38939e55
   Frame=6   JointI=2   JointJ=11   IsCurved=No   GUID=b1787cda-2ed7-4f0e-ab45-ea1388f37b76
   Frame=7   JointI=4   JointJ=12   IsCurved=No   GUID=d866ab4f-7392-4f8c-85cd-a912f7ae7cf8
   Frame=8   JointI=6   JointJ=13   IsCurved=No   GUID=2093dc15-1532-456f-8a33-e1ac488156ac
   Frame=9   JointI=8   JointJ=14   IsCurved=No   GUID=bcf6961a-4da6-4cc6-a162-7ce040d1df6f
   Frame=10   JointI=10   JointJ=15   IsCurved=No   GUID=7b7fd76d-dda3-4817-9aa7-3aea2a181889
   Frame=11   JointI=11   JointJ=16   IsCurved=No   GUID=c08e4075-7263-4278-91b2-032e7293d2b0
   Frame=12   JointI=12   JointJ=17   IsCurved=No   GUID=bc2d94ae-f10a-4ed8-93bc-b01977fdf21a
   Frame=13   JointI=13   JointJ=18   IsCurved=No   GUID=9d16fd6c-24bd-42c9-b7b9-710bd5e6b2f6
   Frame=14   JointI=14   JointJ=19   IsCurved=No   GUID=7e762765-e042-4717-b5c5-95be6899f596
   Frame=15   JointI=15   JointJ=20   IsCurved=No   GUID=de28508d-4803-4d2a-a291-16c6ba26c342
   Frame=16   JointI=21   JointJ=2   IsCurved=No   GUID=97740a51-4adf-42c5-9577-48502a1d7f2a
   Frame=17   JointI=22   JointJ=11   IsCurved=No   GUID=8db07161-b2bd-482e-8b1e-da0fae8b3e3e
   Frame=18   JointI=2   JointJ=4   IsCurved=No   GUID=52040198-3fc9-4735-8ffb-309deb72702e
   Frame=19   JointI=11   JointJ=12   IsCurved=No   GUID=3de84a3f-436c-4053-83b9-80f8a561c508
   Frame=20   JointI=4   JointJ=6   IsCurved=No   GUID=8b73fcd0-f2d1-4cb6-b8f4-a06447ed0f6d
   Frame=21   JointI=12   JointJ=13   IsCurved=No   GUID=af8d7b45-5afe-4e63-b575-172a4ebedd3c
   Frame=22   JointI=6   JointJ=8   IsCurved=No   GUID=900b6ab8-cc38-4d79-98f5-034aabff6430
   Frame=23   JointI=13   JointJ=14   IsCurved=No   GUID=3ffa4ab8-2849-4578-ad04-14c0bf5415f0
   Frame=24   JointI=8   JointJ=10   IsCurved=No   GUID=c350c345-512d-4d45-8c47-0df68c564d1e
   Frame=25   JointI=14   JointJ=15   IsCurved=No   GUID=57771745-42a5-4598-a3e0-24408109792c
   Frame=26   JointI=10   JointJ=23   IsCurved=No   GUID=b1302a4a-bbc7-4cba-a2e9-e31db971d199
   Frame=27   JointI=15   JointJ=24   IsCurved=No   GUID=8c83d072-adcd-45e9-b407-fb6bbad0faba
   Frame=28   JointI=2   JointJ=25   IsCurved=No   GUID=de6bec7c-7eaa-46e0-a01a-ec570712dca0
   Frame=29   JointI=25   JointJ=26   IsCurved=No   GUID=df4a3160-13eb-46a7-8851-49b23770c77e
   Frame=30   JointI=26   JointJ=27   IsCurved=No   GUID=32e4ec66-448f-4019-b431-ba416318ff30
   Frame=31   JointI=4   JointJ=28   IsCurved=No   GUID=42815d0a-da80-4d2c-8238-b46a3d107b96
   Frame=32   JointI=28   JointJ=29   IsCurved=No   GUID=eb2628ea-b9e8-417e-8fd9-ecea3e6845f7
   Frame=33   JointI=29   JointJ=30   IsCurved=No   GUID=7a42737c-074d-4999-b138-fe44d1ae84b7
   Frame=34   JointI=6   JointJ=31   IsCurved=No   GUID=bc998a34-0b45-440a-8ac7-6d5e4f220d77
   Frame=35   JointI=31   JointJ=32   IsCurved=No   GUID=fd86922f-0c5f-4ce5-99de-a5b357ddf3aa
   Frame=36   JointI=32   JointJ=33   IsCurved=No   GUID=fc44a127-24a2-46e2-ad5f-4fb6d6b7b74e
   Frame=37   JointI=8   JointJ=34   IsCurved=No   GUID=3e6769e4-0680-435e-9582-72f37505ebf4
   Frame=38   JointI=34   JointJ=35   IsCurved=No   GUID=2ea07d64-d090-4969-b5ef-ad303b4d28d0
   Frame=39   JointI=35   JointJ=36   IsCurved=No   GUID=fdda77b0-a2db-4f40-9b45-a9401e72c9a5
   Frame=40   JointI=10   JointJ=37   IsCurved=No   GUID=080a2e58-156f-4069-a61b-4529829b2503
   Frame=41   JointI=37   JointJ=38   IsCurved=No   GUID=e4483421-61ec-4043-83e0-98377449c888
   Frame=42   JointI=38   JointJ=39   IsCurved=No   GUID=bdad85db-1420-47a6-990d-9d4a07b51aaa
   Frame=43   JointI=11   JointJ=40   IsCurved=No   GUID=54c258a3-5ec0-4008-8c59-6dd9cee1d485
   Frame=44   JointI=40   JointJ=41   IsCurved=No   GUID=03849262-936b-4875-8c1a-8737351d1bf9
   Frame=45   JointI=12   JointJ=42   IsCurved=No   GUID=86bb9a6d-6c5f-4a12-8e9c-5894d6f6a1a4
   Frame=46   JointI=42   JointJ=43   IsCurved=No   GUID=7edb908a-76cb-4ce8-948c-1aada4cea187
   Frame=47   JointI=13   JointJ=44   IsCurved=No   GUID=599221ba-ac5b-4fff-b907-de9340dafe41
   Frame=48   JointI=44   JointJ=45   IsCurved=No   GUID=c6bca1aa-57b3-4848-b613-60c54ebe5d6b
   Frame=49   JointI=14   JointJ=46   IsCurved=No   GUID=88e69c62-4428-48db-874f-3ef9a78c2d2d
   Frame=50   JointI=46   JointJ=47   IsCurved=No   GUID=ad2addb8-2bba-4233-a6e7-1940295d7ed6
   Frame=51   JointI=15   JointJ=48   IsCurved=No   GUID=4122479a-b264-4152-8cb6-cab5ab911c60
   Frame=52   JointI=48   JointJ=49   IsCurved=No   GUID=9bce4e33-da04-438b-8a34-a9000b4b7605
   Frame=53   JointI=25   JointJ=28   IsCurved=No   GUID=7753c33e-d651-4ff9-ba46-8e36c0f8d179
   Frame=54   JointI=28   JointJ=31   IsCurved=No   GUID=c7413bc0-8f5a-427d-9a87-67feef3172db
   Frame=55   JointI=31   JointJ=34   IsCurved=No   GUID=b6f70298-991a-4de9-b536-f4c931d35f99
   Frame=56   JointI=34   JointJ=37   IsCurved=No   GUID=2ce8f99a-0495-4d3a-bbf4-5aff9a1aa932
 
TABLE:  "COORDINATE SYSTEMS"
   Name=GLOBAL   Type=Cartesian   X=0   Y=0   Z=0   AboutZ=0   AboutY=0   AboutX=0
 
TABLE:  "DATABASE DOCUMENTATION"
 
TABLE:  "DATABASE FORMAT TYPES"
   UnitsCurr=Yes   OverrideE=No
 
TABLE:  "FRAME AUTO MESH ASSIGNMENTS"
   Frame=1   AutoMesh=Yes   AtJoints=Yes   AtFrames=No   NumSegments=0   MaxLength=0   MaxDegrees=0
   Frame=2   AutoMesh=Yes   AtJoints=Yes   AtFrames=No   NumSegments=0   MaxLength=0   MaxDegrees=0
   Frame=3   AutoMesh=Yes   AtJoints=Yes   AtFrames=No   NumSegments=0   MaxLength=0   MaxDegrees=0
   Frame=4   AutoMesh=Yes   AtJoints=Yes   AtFrames=No   NumSegments=0   MaxLength=0   MaxDegrees=0
   Frame=5   AutoMesh=Yes   AtJoints=Yes   AtFrames=No   NumSegments=0   MaxLength=0   MaxDegrees=0
   Frame=6   AutoMesh=Yes   AtJoints=Yes   AtFrames=No   NumSegments=0   MaxLength=0   MaxDegrees=0
   Frame=7   AutoMesh=Yes   AtJoints=Yes   AtFrames=No   NumSegments=0   MaxLength=0   MaxDegrees=0
   Frame=8   AutoMesh=Yes   AtJoints=Yes   AtFrames=No   NumSegments=0   MaxLength=0   MaxDegrees=0
   Frame=9   AutoMesh=Yes   AtJoints=Yes   AtFrames=No   NumSegments=0   MaxLength=0   MaxDegrees=0
   Frame=10   AutoMesh=Yes   AtJoints=Yes   AtFrames=No   NumSegments=0   MaxLength=0   MaxDegrees=0
   Frame=11   AutoMesh=Yes   AtJoints=Yes   AtFrames=No   NumSegments=0   MaxLength=0   MaxDegrees=0
   Frame=12   AutoMesh=Yes   AtJoints=Yes   AtFrames=No   NumSegments=0   MaxLength=0   MaxDegrees=0
   Frame=13   AutoMesh=Yes   AtJoints=Yes   AtFrames=No   NumSegments=0   MaxLength=0   MaxDegrees=0
   Frame=14   AutoMesh=Yes   AtJoints=Yes   AtFrames=No   NumSegments=0   MaxLength=0   MaxDegrees=0
   Frame=15   AutoMesh=Yes   AtJoints=Yes   AtFrames=No   NumSegments=0   MaxLength=0   MaxDegrees=0
   Frame=16   AutoMesh=Yes   AtJoints=Yes   AtFrames=No   NumSegments=0   MaxLength=0   MaxDegrees=0
   Frame=17   AutoMesh=Yes   AtJoints=Yes   AtFrames=No   NumSegments=0   MaxLength=0   MaxDegrees=0
   Frame=18   AutoMesh=Yes   AtJoints=Yes   AtFrames=No   NumSegments=0   MaxLength=0   MaxDegrees=0
   Frame=19   AutoMesh=Yes   AtJoints=Yes   AtFrames=No   NumSegments=0   MaxLength=0   MaxDegrees=0
   Frame=20   AutoMesh=Yes   AtJoints=Yes   AtFrames=No   NumSegments=0   MaxLength=0   MaxDegrees=0
# ... 36 like lines cut
 
TABLE:  "FRAME DESIGN PROCEDURES"
   Frame=1   DesignProc="From Material"
   Frame=2   DesignProc="From Material"
   Frame=3   DesignProc="From Material"
   Frame=4   DesignProc="From Material"
   Frame=5   DesignProc="From Material"
   Frame=6   DesignProc="From Material"
   Frame=7   DesignProc="From Material"
   Frame=8   DesignProc="From Material"
   Frame=9   DesignProc="From Material"
   Frame=10   DesignProc="From Material"
   Frame=11   DesignProc="From Material"
   Frame=12   DesignProc="From Material"
   Frame=13   DesignProc="From Material"
   Frame=14   DesignProc="From Material"
   Frame=15   DesignProc="From Material"
   Frame=16   DesignProc="From Material"
   Frame=17   DesignProc="From Material"
   Frame=18   DesignProc="From Material"
   Frame=19   DesignProc="From Material"
   Frame=20   DesignProc="From Material"
# ... 8 like lines cut
   Frame=29   DesignProc="No Design"
   Frame=30   DesignProc="No Design"
   Frame=31   DesignProc="From Material"
   Frame=32   DesignProc="No Design"
   Frame=33   DesignProc="No Design"
   Frame=34   DesignProc="From Material"
   Frame=35   DesignProc="No Design"
   Frame=36   DesignProc="No Design"
   Frame=37   DesignProc="From Material"
   Frame=38   DesignProc="No Design"
   Frame=39   DesignProc="No Design"
   Frame=40   DesignProc="From Material"
   Frame=41   DesignProc="No Design"
   Frame=42   DesignProc="No Design"
   Frame=43   DesignProc="No Design"
   Frame=44   DesignProc="No Design"
   Frame=45   DesignProc="No Design"
   Frame=46   DesignProc="No Design"
   Frame=47   DesignProc="No Design"
   Frame=48   DesignProc="No Design"
   Frame=49   DesignProc="No Design"
   Frame=50   DesignProc="No Design"
   Frame=51   DesignProc="No Design"
   Frame=52   DesignProc="No Design"
   Frame=53   DesignProc="From Material"
   Frame=54   DesignProc="From Material"
   Frame=55   DesignProc="From Material"
   Frame=56   DesignProc="From Material"
 
TABLE:  "FRAME LOAD TRANSFER OPTIONS"
   Frame=1   Transfer=Yes
   Frame=2   Transfer=Yes
   Frame=3   Transfer=Yes
   Frame=4   Transfer=Yes
   Frame=5   Transfer=Yes
   Frame=6   Transfer=Yes
   Frame=7   Transfer=Yes
   Frame=8   Transfer=Yes
   Frame=9   Transfer=Yes
   Frame=10   Transfer=Yes
   Frame=11   Transfer=Yes
   Frame=12   Transfer=Yes
   Frame=13   Transfer=Yes
   Frame=14   Transfer=Yes
   Frame=15   Transfer=Yes
   Frame=16   Transfer=Yes
   Frame=17   Transfer=Yes
   Frame=18   Transfer=Yes
   Frame=19   Transfer=Yes
   Frame=20   Transfer=Yes
# ... 36 like lines cut
 
TABLE:  "FRAME LOCAL AXES ASSIGNMENTS 1 - TYPICAL"
   Frame=28   Angle=90
   Frame=31   Angle=90
   Frame=34   Angle=90
   Frame=37   Angle=90
   Frame=40   Angle=90
 
TABLE:  "FRAME OUTPUT STATION ASSIGNMENTS"
   Frame=1   StationType=MaxStaSpcg   MaxStaSpcg=0.5   AddAtElmInt=Yes   AddAtPtLoad=Yes
   Frame=2   StationType=MaxStaSpcg   MaxStaSpcg=0.5   AddAtElmInt=Yes   AddAtPtLoad=Yes
   Frame=3   StationType=MaxStaSpcg   MaxStaSpcg=0.5   AddAtElmInt=Yes   AddAtPtLoad=Yes
   Frame=4   StationType=MaxStaSpcg   MaxStaSpcg=0.5   AddAtElmInt=Yes   AddAtPtLoad=Yes
   Frame=5   StationType=MaxStaSpcg   MaxStaSpcg=0.5   AddAtElmInt=Yes   AddAtPtLoad=Yes
   Frame=6   StationType=MaxStaSpcg   MaxStaSpcg=0.5   AddAtElmInt=Yes   AddAtPtLoad=Yes
   Frame=7   StationType=MaxStaSpcg   MaxStaSpcg=0.5   AddAtElmInt=Yes   AddAtPtLoad=Yes
   Frame=8   StationType=MaxStaSpcg   MaxStaSpcg=0.5   AddAtElmInt=Yes   AddAtPtLoad=Yes
   Frame=9   StationType=MaxStaSpcg   MaxStaSpcg=0.5   AddAtElmInt=Yes   AddAtPtLoad=Yes
   Frame=10   StationType=MaxStaSpcg   MaxStaSpcg=0.5   AddAtElmInt=Yes   AddAtPtLoad=Yes
   Frame=11   StationType=MaxStaSpcg   MaxStaSpcg=0.5   AddAtElmInt=Yes   AddAtPtLoad=Yes
   Frame=12   StationType=MaxStaSpcg   MaxStaSpcg=0.5   AddAtElmInt=Yes   AddAtPtLoad=Yes
   Frame=13   StationType=MaxStaSpcg   MaxStaSpcg=0.5   AddAtElmInt=Yes   AddAtPtLoad=Yes
   Frame=14   StationType=MaxStaSpcg   MaxStaSpcg=0.5   AddAtElmInt=Yes   AddAtPtLoad=Yes
   Frame=15   StationType=MaxStaSpcg   MaxStaSpcg=0.5   AddAtElmInt=Yes   AddAtPtLoad=Yes
   Frame=16   StationType=MaxStaSpcg   MaxStaSpcg=0.5   AddAtElmInt=Yes   AddAtPtLoad=Yes
   Frame=17   StationType=MaxStaSpcg   MaxStaSpcg=0.5   AddAtElmInt=Yes   AddAtPtLoad=Yes
   Frame=18   StationType=MaxStaSpcg   MaxStaSpcg=0.5   AddAtElmInt=Yes   AddAtPtLoad=Yes
   Frame=19   StationType=MaxStaSpcg   MaxStaSpcg=0.5   AddAtElmInt=Yes   AddAtPtLoad=Yes
   Frame=20   StationType=MaxStaSpcg   MaxStaSpcg=0.5   AddAtElmInt=Yes   AddAtPtLoad=Yes
# ... 7 like lines cut
   Frame=28   StationType=MinNumSta   MinNumSta=3   AddAtElmInt=Yes   AddAtPtLoad=Yes
   Frame=29   StationType=MinNumSta   MinNumSta=3   AddAtElmInt=Yes   AddAtPtLoad=Yes
   Frame=30   StationType=MinNumSta   MinNumSta=3   AddAtElmInt=Yes   AddAtPtLoad=Yes
   Frame=31   StationType=MinNumSta   MinNumSta=3   AddAtElmInt=Yes   AddAtPtLoad=Yes
   Frame=32   StationType=MinNumSta   MinNumSta=3   AddAtElmInt=Yes   AddAtPtLoad=Yes
   Frame=33   StationType=MinNumSta   MinNumSta=3   AddAtElmInt=Yes   AddAtPtLoad=Yes
   Frame=34   StationType=MinNumSta   MinNumSta=3   AddAtElmInt=Yes   AddAtPtLoad=Yes
   Frame=35   StationType=MinNumSta   MinNumSta=3   AddAtElmInt=Yes   AddAtPtLoad=Yes
   Frame=36   StationType=MinNumSta   MinNumSta=3   AddAtElmInt=Yes   AddAtPtLoad=Yes
   Frame=37   StationType=MinNumSta   MinNumSta=3   AddAtElmInt=Yes   AddAtPtLoad=Yes
   Frame=38   StationType=MinNumSta   MinNumSta=3   AddAtElmInt=Yes   AddAtPtLoad=Yes
   Frame=39   StationType=MinNumSta   MinNumSta=3   AddAtElmInt=Yes   AddAtPtLoad=Yes
   Frame=40   StationType=MinNumSta   MinNumSta=3   AddAtElmInt=Yes   AddAtPtLoad=Yes
   Frame=41   StationType=MinNumSta   MinNumSta=3   AddAtElmInt=Yes   AddAtPtLoad=Yes
   Frame=42   StationType=MinNumSta   MinNumSta=3   AddAtElmInt=Yes   AddAtPtLoad=Yes
   Frame=43   StationType=MinNumSta   MinNumSta=3   AddAtElmInt=Yes   AddAtPtLoad=Yes
   Frame=44   StationType=MinNumSta   MinNumSta=3   AddAtElmInt=Yes   AddAtPtLoad=Yes
   Frame=45   StationType=MinNumSta   MinNumSta=3   AddAtElmInt=Yes   AddAtPtLoad=Yes
   Frame=46   StationType=MinNumSta   MinNumSta=3   AddAtElmInt=Yes   AddAtPtLoad=Yes
   Frame=47   StationType=MinNumSta   MinNumSta=3   AddAtElmInt=Yes   AddAtPtLoad=Yes
# ... 5 like lines cut
   Frame=53   StationType=MaxStaSpcg   MaxStaSpcg=0.5   AddAtElmInt=Yes   AddAtPtLoad=Yes
   Frame=54   StationType=MaxStaSpcg   MaxStaSpcg=0.5   AddAtElmInt=Yes   AddAtPtLoad=Yes
   Frame=55   StationType=MaxStaSpcg   MaxStaSpcg=0.5   AddAtElmInt=Yes   AddAtPtLoad=Yes
   Frame=56   StationType=MaxStaSpcg   MaxStaSpcg=0.5   AddAtElmInt=Yes   AddAtPtLoad=Yes
 
TABLE:  "FRAME SECTION ASSIGNMENTS"
   Frame=1   AutoSelect=N.A.   AnalSect=TB   MatProp=Default
   Frame=2   AutoSelect=N.A.   AnalSect=TB   MatProp=Default
   Frame=3   AutoSelect=N.A.   AnalSect=TB   MatProp=Default
   Frame=4   AutoSelect=N.A.   AnalSect=TB   MatProp=Default
   Frame=5   AutoSelect=N.A.   AnalSect=TB   MatProp=Default
   Frame=6   AutoSelect=N.A.   AnalSect=TB   MatProp=Default
   Frame=7   AutoSelect=N.A.   AnalSect=TB   MatProp=Default
   Frame=8   AutoSelect=N.A.   AnalSect=TB   MatProp=Default
   Frame=9   AutoSelect=N.A.   AnalSect=TB   MatProp=Default
   Frame=10   AutoSelect=N.A.   AnalSect=TB   MatProp=Default
   Frame=11   AutoSelect=N.A.   AnalSect=TB   MatProp=Default
   Frame=12   AutoSelect=N.A.   AnalSect=TB   MatProp=Default
   Frame=13   AutoSelect=N.A.   AnalSect=TB   MatProp=Default
   Frame=14   AutoSelect=N.A.   AnalSect=TB   MatProp=Default
   Frame=15   AutoSelect=N.A.   AnalSect=TB   MatProp=Default
   Frame=16   AutoSelect=N.A.   AnalSect=LB   MatProp=Default
   Frame=17   AutoSelect=N.A.   AnalSect=LB   MatProp=Default
   Frame=18   AutoSelect=N.A.   AnalSect=LB   MatProp=Default
   Frame=19   AutoSelect=N.A.   AnalSect=LB   MatProp=Default
   Frame=20   AutoSelect=N.A.   AnalSect=LB   MatProp=Default
   Frame=21   AutoSelect=N.A.   AnalSect=LB   MatProp=Default
   Frame=22   AutoSelect=N.A.   AnalSect=LB   MatProp=Default
   Frame=23   AutoSelect=N.A.   AnalSect=LB   MatProp=Default
   Frame=24   AutoSelect=N.A.   AnalSect=LB   MatProp=Default
   Frame=25   AutoSelect=N.A.   AnalSect=LB   MatProp=Default
   Frame=26   AutoSelect=N.A.   AnalSect=LB   MatProp=Default
   Frame=27   AutoSelect=N.A.   AnalSect=LB   MatProp=Default
   Frame=28   AutoSelect=N.A.   AnalSect=EB   MatProp=Default
   Frame=29   AutoSelect=N.A.   AnalSect=Piles   MatProp=Default
   Frame=30   AutoSelect=N.A.   AnalSect=Piles   MatProp=Default
   Frame=31   AutoSelect=N.A.   AnalSect=EB   MatProp=Default
   Frame=32   AutoSelect=N.A.   AnalSect=Piles   MatProp=Default
   Frame=33   AutoSelect=N.A.   AnalSect=Piles   MatProp=Default
   Frame=34   AutoSelect=N.A.   AnalSect=EB   MatProp=Default
   Frame=35   AutoSelect=N.A.   AnalSect=Piles   MatProp=Default
   Frame=36   AutoSelect=N.A.   AnalSect=Piles   MatProp=Default
   Frame=37   AutoSelect=N.A.   AnalSect=EB   MatProp=Default
   Frame=38   AutoSelect=N.A.   AnalSect=Piles   MatProp=Default
   Frame=39   AutoSelect=N.A.   AnalSect=Piles   MatProp=Default
   Frame=40   AutoSelect=N.A.   AnalSect=EB   MatProp=Default
   Frame=41   AutoSelect=N.A.   AnalSect=Piles   MatProp=Default
   Frame=42   AutoSelect=N.A.   AnalSect=Piles   MatProp=Default
   Frame=43   AutoSelect=N.A.   AnalSect=Piles   MatProp=Default
   Frame=44   AutoSelect=N.A.   AnalSect=Piles   MatProp=Default
   Frame=45   AutoSelect=N.A.   AnalSect=Piles   MatProp=Default
   Frame=46   AutoSelect=N.A.   AnalSect=Piles   MatProp=Default
   Frame=47   AutoSelect=N.A.   AnalSect=Piles   MatProp=Default
   Frame=48   AutoSelect=N.A.   AnalSect=Piles   MatProp=Default
   Frame=49   AutoSelect=N.A.   AnalSect=Piles   MatProp=Default
   Frame=50   AutoSelect=N.A.   AnalSect=Piles   MatProp=Default
   Frame=51   AutoSelect=N.A.   AnalSect=Piles   MatProp=Default
   Frame=52   AutoSelect=N.A.   AnalSect=Piles   MatProp=Default
   Frame=53   AutoSelect=N.A.   AnalSect=EB-1   MatProp=Default
   Frame=54   AutoSelect=N.A.   AnalSect=EB-1   MatProp=Default
   Frame=55   AutoSelect=N.A.   AnalSect=EB-1   MatProp=Default
   Frame=56   AutoSelect=N.A.   AnalSect=EB-1   MatProp=Default
 
TABLE:  "FRAME SECTION PROPERTIES 01 - GENERAL"
   SectionName=EB   Material=BTCT   Shape=Rectangular   t3=1.2   t2=0.9   Area=1.08   TorsConst=0.157451897460938   I33=0.1296   I22=0.0729   I23=0   AS2=0.9   AS3=0.9   S33Top=0.216   S33Bot=0.216   S22Left=0.162   S22Right=0.162 _
        Z33=0.324   Z22=0.243   R33=0.346410161513775   R22=0.259807621135332   CGOffset3=0   CGOffset2=0   EccV2=0   EccV3=0   Cw=0   Color=Red   FromFile=No   AMod=1   A2Mod=1   A3Mod=1   JMod=1   I2Mod=1   I3Mod=1   MMod=1   WMod=1
   SectionName=EB-1   Material=BTCT   Shape=Rectangular   t3=0.9   t2=0.9   Area=0.81   TorsConst=0.09240075   I33=0.054675   I22=0.054675   I23=0   AS2=0.675   AS3=0.675   S33Top=0.1215   S33Bot=0.1215   S22Left=0.1215   S22Right=0.1215 _
        Z33=0.18225   Z22=0.18225   R33=0.259807621135332   R22=0.259807621135332   CGOffset3=0   CGOffset2=0   EccV2=0   EccV3=0   Cw=0   Color=Magenta   FromFile=No   AMod=1   A2Mod=1   A3Mod=1   JMod=1   I2Mod=1   I3Mod=1   MMod=1   WMod=1
   SectionName=LB   Material=BTCT   Shape=Rectangular   t3=0.5   t2=0.9   Area=0.45   TorsConst=0.0244791904816339   I33=0.009375   I22=0.030375   I23=0   AS2=0.375   AS3=0.375   S33Top=0.0375   S33Bot=0.0375   S22Left=0.0675 _
        S22Right=0.0675   Z33=0.05625   Z22=0.10125   R33=0.144337567297406   R22=0.259807621135332   CGOffset3=0   CGOffset2=0   EccV2=0   EccV3=0   Cw=0   Color=Cyan   FromFile=No   AMod=1   A2Mod=1   A3Mod=1   JMod=1   I2Mod=1   I3Mod=1 _
        MMod=1   WMod=1
   SectionName=Piles   Material=BTCTCOC   Shape=Pipe   t3=0.45   tw=0.07   Area=0.0835663645854885   TorsConst=0.00311911455815336   I33=0.00155955727907668   I22=0.00155955727907668   I23=0   AS2=0.0427178437546682   AS3=0.0427178437546682 _
        S33Top=0.00693136568478524   S33Bot=0.00693136568478524   S22Left=0.00693136568478524   S22Right=0.00693136568478524   Z33=0.0102223333333333   Z22=0.0102223333333333   R33=0.136610760923143   R22=0.136610760923143   CGOffset3=0 _
        CGOffset2=0   EccV2=0   EccV3=0   Cw=0   Color=Yellow   FromFile=No   AMod=1   A2Mod=1   A3Mod=1   JMod=1   I2Mod=1   I3Mod=1   MMod=1   WMod=1
   SectionName=TB   Material=BTCT   Shape=Rectangular   t3=0.5   t2=0.9   Area=0.45   TorsConst=0.0244791904816339   I33=0.009375   I22=0.030375   I23=0   AS2=0.375   AS3=0.375   S33Top=0.0375   S33Bot=0.0375   S22Left=0.0675 _
        S22Right=0.0675   Z33=0.05625   Z22=0.10125   R33=0.144337567297406   R22=0.259807621135332   CGOffset3=0   CGOffset2=0   EccV2=0   EccV3=0   Cw=0   Color=Green   FromFile=No   AMod=1   A2Mod=1   A3Mod=1   JMod=1   I2Mod=1   I3Mod=1 _
        MMod=1   WMod=1
 
TABLE:  "FRAME SECTION PROPERTIES 02 - CONCRETE COLUMN"
   SectionName=EB   RebarMatL=A706   RebarMatC=A706   ReinfConfig=Rectangular   LatReinf=Ties   Cover=0.05   NumBars3Dir=2   NumBars2Dir=2   BarSizeL=12d   BarSizeC=10d   SpacingC=0.1   NumCBars2=2   NumCBars3=2   ReinfType=Design
   SectionName=EB-1   RebarMatL=A706   RebarMatC=A706   ReinfConfig=Rectangular   LatReinf=Ties   Cover=0.05   NumBars3Dir=2   NumBars2Dir=2   BarSizeL=12d   BarSizeC=10d   SpacingC=0.1   NumCBars2=2   NumCBars3=2   ReinfType=Design
   SectionName=LB   RebarMatL=A706   RebarMatC=A706   ReinfConfig=Rectangular   LatReinf=Ties   Cover=0.05   NumBars3Dir=2   NumBars2Dir=2   BarSizeL=12d   BarSizeC=10d   SpacingC=0.1   NumCBars2=2   NumCBars3=2   ReinfType=Design
   SectionName=TB   RebarMatL=A706   RebarMatC=A706   ReinfConfig=Rectangular   LatReinf=Ties   Cover=0.05   NumBars3Dir=2   NumBars2Dir=2   BarSizeL=12d   BarSizeC=10d   SpacingC=0.1   NumCBars2=2   NumCBars3=2   ReinfType=Design
 
TABLE:  "FRAME SECTION PROPERTIES 13 - TIME DEPENDENT"
   SectionName=EB   TypeSize=Auto   AutoSFSize=1
   SectionName=EB-1   TypeSize=Auto   AutoSFSize=1
   SectionName=LB   TypeSize=Auto   AutoSFSize=1
   SectionName=Piles   TypeSize=Auto   AutoSFSize=1
   SectionName=TB   TypeSize=Auto   AutoSFSize=1
 
TABLE:  "FUNCTION - PLOT FUNCTIONS"
   PlotFunc="Input Energy"   Type=Energy   Component=Input   Mode=All
 
TABLE:  "FUNCTION - POWER SPECTRAL DENSITY - USER"
   Name=UNIFPSD   Frequency=0   Value=1
   Name=UNIFPSD   Frequency=1   Value=1
 
TABLE:  "FUNCTION - RESPONSE SPECTRUM - USER"
   Name=UNIFRS   Period=0   Accel=1   FuncDamp=0.05
   Name=UNIFRS   Period=1   Accel=1
 
TABLE:  "FUNCTION - STEADY STATE - USER"
   Name=UNIFSS   Frequency=0   Value=1
   Name=UNIFSS   Frequency=1   Value=1
 
TABLE:  "FUNCTION - TIME HISTORY - USER"
   Name=RAMPTH   Time=0   Value=0
   Name=RAMPTH   Time=1   Value=1
   Name=RAMPTH   Time=4   Value=1
   Name=UNIFTH   Time=0   Value=1
   Name=UNIFTH   Time=1   Value=1
 
TABLE:  "GRID LINES"
   CoordSys=GLOBAL   AxisDir=X   GridID=A   XRYZCoord=-10   LineType=Primary   LineColor=Gray8Dark   Visible=Yes   BubbleLoc=End   AllVisible=Yes   BubbleSize=0.9375
   CoordSys=GLOBAL   AxisDir=X   GridID=B   XRYZCoord=-9   LineType=Primary   LineColor=Gray8Dark   Visible=Yes   BubbleLoc=End
   CoordSys=GLOBAL   AxisDir=X   GridID=C   XRYZCoord=-4.5   LineType=Primary   LineColor=Gray8Dark   Visible=Yes   BubbleLoc=End
   CoordSys=GLOBAL   AxisDir=X   GridID=D   XRYZCoord=0   LineType=Primary   LineColor=Gray8Dark   Visible=Yes   BubbleLoc=End
   CoordSys=GLOBAL   AxisDir=X   GridID=E   XRYZCoord=4.5   LineType=Primary   LineColor=Gray8Dark   Visible=Yes   BubbleLoc=End
   CoordSys=GLOBAL   AxisDir=X   GridID=F   XRYZCoord=9   LineType=Primary   LineColor=Gray8Dark   Visible=Yes   BubbleLoc=End
   CoordSys=GLOBAL   AxisDir=X   GridID=G   XRYZCoord=10   LineType=Primary   LineColor=Gray8Dark   Visible=Yes   BubbleLoc=End
   CoordSys=GLOBAL   AxisDir=Y   GridID=1   XRYZCoord=-5.2   LineType=Primary   LineColor=Gray8Dark   Visible=Yes   BubbleLoc=Start
   CoordSys=GLOBAL   AxisDir=Y   GridID=2   XRYZCoord=-4.2   LineType=Primary   LineColor=Gray8Dark   Visible=Yes   BubbleLoc=Start
   CoordSys=GLOBAL   AxisDir=Y   GridID=3   XRYZCoord=0   LineType=Primary   LineColor=Gray8Dark   Visible=Yes   BubbleLoc=Start
   CoordSys=GLOBAL   AxisDir=Y   GridID=4   XRYZCoord=4.2   LineType=Primary   LineColor=Gray8Dark   Visible=Yes   BubbleLoc=Start
   CoordSys=GLOBAL   AxisDir=Y   GridID=5   XRYZCoord=4.8   LineType=Primary   LineColor=Gray8Dark   Visible=Yes   BubbleLoc=Start
   CoordSys=GLOBAL   AxisDir=Z   GridID=Z1   XRYZCoord=0   LineType=Primary   LineColor=Gray8Dark   Visible=Yes   BubbleLoc=End
   CoordSys=GLOBAL   AxisDir=Z   GridID=Z2   XRYZCoord=13   LineType=Primary   LineColor=Gray8Dark   Visible=Yes   BubbleLoc=End
 
TABLE:  "GROUPS 1 - DEFINITIONS"
   GroupName=ALL   Selection=Yes   SectionCut=Yes   Steel=Yes   Concrete=Yes   Aluminum=Yes   ColdFormed=Yes   Stage=Yes   Bridge=Yes   AutoSeismic=No   AutoWind=No   SelDesSteel=No   SelDesAlum=No   SelDesCold=No   MassWeight=Yes   Color=Red
   GroupName=Pile   Selection=Yes   SectionCut=Yes   Steel=Yes   Concrete=Yes   Aluminum=Yes   ColdFormed=Yes   Stage=Yes   Bridge=Yes   AutoSeismic=No   AutoWind=No   SelDesSteel=No   SelDesAlum=No   SelDesCold=No   MassWeight=Yes   Color=Gray8Dark
   GroupName=DN   Selection=Yes   SectionCut=Yes   Steel=Yes   Concrete=Yes   Aluminum=Yes   ColdFormed=Yes   Stage=Yes   Bridge=Yes   AutoSeismic=No   AutoWind=No   SelDesSteel=No   SelDesAlum=No   SelDesCold=No   MassWeight=Yes   Color=Yellow
   GroupName=Pile_Toe   Selection=Yes   SectionCut=Yes   Steel=Yes   Concrete=Yes   Aluminum=Yes   ColdFormed=Yes   Stage=Yes   Bridge=Yes   AutoSeismic=No   AutoWind=No   SelDesSteel=No   SelDesAlum=No   SelDesCold=No   MassWeight=Yes   Color=Green
   GroupName=Pile_Bend   Selection=Yes   SectionCut=Yes   Steel=Yes   Concrete=Yes   Aluminum=Yes   ColdFormed=Yes   Stage=Yes   Bridge=Yes   AutoSeismic=No   AutoWind=No   SelDesSteel=No   SelDesAlum=No   SelDesCold=No   MassWeight=Yes   Color=Cyan
   GroupName=Beam   Selection=Yes   SectionCut=Yes   Steel=Yes   Concrete=Yes   Aluminum=Yes   ColdFormed=Yes   Stage=Yes   Bridge=Yes   AutoSeismic=No   AutoWind=No   SelDesSteel=No   SelDesAlum=No   SelDesCold=No   MassWeight=Yes   Color=Blue
   GroupName=Piles   Selection=Yes   SectionCut=Yes   Steel=Yes   Concrete=Yes   Aluminum=Yes   ColdFormed=Yes   Stage=Yes   Bridge=Yes   AutoSeismic=No   AutoWind=No   SelDesSteel=No   SelDesAlum=No   SelDesCold=No   MassWeight=Yes   Color=Gray8Dark
   GroupName=Beams   Selection=Yes   SectionCut=Yes   Steel=Yes   Concrete=Yes   Aluminum=Yes   ColdFormed=Yes   Stage=Yes   Bridge=Yes   AutoSeismic=No   AutoWind=No   SelDesSteel=No   SelDesAlum=No   SelDesCold=No   MassWeight=Yes   Color=Blue
 
TABLE:  "GROUPS 2 - ASSIGNMENTS"
 
TABLE:  "JOINT COORDINATES"
   Joint=1   CoordSys=GLOBAL   CoordType=Cartesian   XorR=-9.6   Y=-5   Z=0   SpecialJt=No   GUID=eeb91ddc-e76d-4f82-a034-c17dc379be40
   Joint=2   CoordSys=GLOBAL   CoordType=Cartesian   XorR=-9.6   Y=-2.8   Z=0   SpecialJt=No   GUID=4960a413-d035-4b71-9ff2-8cedd02344ac
   Joint=3   CoordSys=GLOBAL   CoordType=Cartesian   XorR=-4.8   Y=-5   Z=0   SpecialJt=No   GUID=e4d9ceff-8cc5-40fb-9ff3-abbd5c97512b
   Joint=4   CoordSys=GLOBAL   CoordType=Cartesian   XorR=-4.8   Y=-2.8   Z=0   SpecialJt=No   GUID=1092431b-8b2a-475a-aecc-a6da5da3b4cf
   Joint=5   CoordSys=GLOBAL   CoordType=Cartesian   XorR=0   Y=-5   Z=0   SpecialJt=No   GUID=9058d1ce-8a3d-44d1-b8df-99af3855307b
   Joint=6   CoordSys=GLOBAL   CoordType=Cartesian   XorR=0   Y=-2.8   Z=0   SpecialJt=No   GUID=96a93dd1-bae8-4440-bdd9-b710502a4cae
   Joint=7   CoordSys=GLOBAL   CoordType=Cartesian   XorR=4.8   Y=-5   Z=0   SpecialJt=No   GUID=285a5d12-0114-4382-a799-274a6b3abc3d
   Joint=8   CoordSys=GLOBAL   CoordType=Cartesian   XorR=4.8   Y=-2.8   Z=0   SpecialJt=No   GUID=1b0a1cc1-d776-4e58-ac80-72ca993d2829
   Joint=9   CoordSys=GLOBAL   CoordType=Cartesian   XorR=9.6   Y=-5   Z=0   SpecialJt=No   GUID=45e5c626-c024-4a46-ac9a-603b313b2afb
   Joint=10   CoordSys=GLOBAL   CoordType=Cartesian   XorR=9.6   Y=-2.8   Z=0   SpecialJt=No   GUID=c8bd820f-191b-4520-873a-fd4319c7fa29
   Joint=11   CoordSys=GLOBAL   CoordType=Cartesian   XorR=-9.6   Y=2.8   Z=0   SpecialJt=No   GUID=3a7c4be2-084e-47d2-8580-8279226ffdcf
   Joint=12   CoordSys=GLOBAL   CoordType=Cartesian   XorR=-4.8   Y=2.8   Z=0   SpecialJt=No   GUID=c0275797-5d23-4537-b847-a56998e1f154
   Joint=13   CoordSys=GLOBAL   CoordType=Cartesian   XorR=0   Y=2.8   Z=0   SpecialJt=No   GUID=43ae6760-c068-4d97-89aa-2cac17050833
   Joint=14   CoordSys=GLOBAL   CoordType=Cartesian   XorR=4.8   Y=2.8   Z=0   SpecialJt=No   GUID=35dce679-33aa-49df-b0f7-a7d250965d5a
   Joint=15   CoordSys=GLOBAL   CoordType=Cartesian   XorR=9.6   Y=2.8   Z=0   SpecialJt=No   GUID=dafd54c6-4650-4278-b971-4bb7fd08fcac
   Joint=16   CoordSys=GLOBAL   CoordType=Cartesian   XorR=-9.6   Y=5   Z=0   SpecialJt=No   GUID=a1f48fbb-b7ca-4a82-beb9-b369694fffc7
   Joint=17   CoordSys=GLOBAL   CoordType=Cartesian   XorR=-4.8   Y=5   Z=0   SpecialJt=No   GUID=debdb6ab-bc7b-4ba5-875b-2e37d8981f37
   Joint=18   CoordSys=GLOBAL   CoordType=Cartesian   XorR=0   Y=5   Z=0   SpecialJt=No   GUID=907d41d5-0251-4a46-8f4c-c88a6b1605fc
   Joint=19   CoordSys=GLOBAL   CoordType=Cartesian   XorR=4.8   Y=5   Z=0   SpecialJt=No   GUID=8e447b71-1be8-41f6-85e0-1bad8a9f1ca6
   Joint=20   CoordSys=GLOBAL   CoordType=Cartesian   XorR=9.6   Y=5   Z=0   SpecialJt=No   GUID=99ae7491-c110-4b4f-8c47-5f182088a31f
   Joint=21   CoordSys=GLOBAL   CoordType=Cartesian   XorR=-10   Y=-2.8   Z=0   SpecialJt=No   GUID=88a56937-fb01-464e-b4f6-ae47cff8321a
   Joint=22   CoordSys=GLOBAL   CoordType=Cartesian   XorR=-10   Y=2.8   Z=0   SpecialJt=No   GUID=26527f7f-2c13-45fe-9e4b-2291f689f463
   Joint=23   CoordSys=GLOBAL   CoordType=Cartesian   XorR=10   Y=-2.8   Z=0   SpecialJt=No   GUID=2c0f8ba2-5d9b-48b7-95c0-fda75a715138
   Joint=24   CoordSys=GLOBAL   CoordType=Cartesian   XorR=10   Y=2.8   Z=0   SpecialJt=No   GUID=76853137-1838-46ba-8479-142a53a46184
   Joint=25   CoordSys=GLOBAL   CoordType=Cartesian   XorR=-9.6   Y=-2.8   Z=-3   SpecialJt=No   GUID=6681ebfd-4f44-450c-acbc-cdf1bfa89add
   Joint=26   CoordSys=GLOBAL   CoordType=Cartesian   XorR=-9.6   Y=-2.8   Z=-14.2059650684231   SpecialJt=No   GUID=62e19d8a-5b43-4380-9176-7b92a032ebe2
   Joint=27   CoordSys=GLOBAL   CoordType=Cartesian   XorR=-9.6   Y=-2.8   Z=-16   SpecialJt=No   GUID=11380623-4fdb-44f1-a273-c83a58dcb9cd
   Joint=28   CoordSys=GLOBAL   CoordType=Cartesian   XorR=-4.8   Y=-2.8   Z=-3   SpecialJt=No   GUID=7c235ee4-5224-4353-9325-d3858ca3dfd3
   Joint=29   CoordSys=GLOBAL   CoordType=Cartesian   XorR=-4.8   Y=-2.8   Z=-14.2059650684231   SpecialJt=No   GUID=2a1e369c-9580-44a4-bdf3-aeebef1a0505
   Joint=30   CoordSys=GLOBAL   CoordType=Cartesian   XorR=-4.8   Y=-2.8   Z=-16   SpecialJt=No   GUID=5235be55-4da7-49f2-b341-09d67441e35e
   Joint=31   CoordSys=GLOBAL   CoordType=Cartesian   XorR=0   Y=-2.8   Z=-3   SpecialJt=No   GUID=71702ee2-490e-4181-856f-ad004555d7ba
   Joint=32   CoordSys=GLOBAL   CoordType=Cartesian   XorR=0   Y=-2.8   Z=-14.2059650684231   SpecialJt=No   GUID=ca2d1343-a5de-4ce0-b12a-dd40d11fd277
   Joint=33   CoordSys=GLOBAL   CoordType=Cartesian   XorR=0   Y=-2.8   Z=-16   SpecialJt=No   GUID=2e4db965-17f2-407f-aae9-f09ad497c73c
   Joint=34   CoordSys=GLOBAL   CoordType=Cartesian   XorR=4.8   Y=-2.8   Z=-3   SpecialJt=No   GUID=88431ef1-4959-4a59-8187-7805a1f49bf1
   Joint=35   CoordSys=GLOBAL   CoordType=Cartesian   XorR=4.8   Y=-2.8   Z=-14.2059650684231   SpecialJt=No   GUID=9c7e20c3-455b-4d41-b839-ef55a83fe893
   Joint=36   CoordSys=GLOBAL   CoordType=Cartesian   XorR=4.8   Y=-2.8   Z=-16   SpecialJt=No   GUID=8214e7a2-3467-4824-a9e6-e785e6986146
   Joint=37   CoordSys=GLOBAL   CoordType=Cartesian   XorR=9.6   Y=-2.8   Z=-3   SpecialJt=No   GUID=8dcfbe9e-caa5-4871-ab87-6d0ecfc58f1c
   Joint=38   CoordSys=GLOBAL   CoordType=Cartesian   XorR=9.6   Y=-2.8   Z=-14.2059650684231   SpecialJt=No   GUID=5bfafa71-8f57-4fff-b58e-fd09badd89e4
   Joint=39   CoordSys=GLOBAL   CoordType=Cartesian   XorR=9.6   Y=-2.8   Z=-16   SpecialJt=No   GUID=665e9331-a2aa-4ffa-9c67-3375ef633542
   Joint=40   CoordSys=GLOBAL   CoordType=Cartesian   XorR=-9.6   Y=2.8   Z=-14.2059650684231   SpecialJt=No   GUID=8fdf15ed-af91-4e39-a6da-d15dd134292e
   Joint=41   CoordSys=GLOBAL   CoordType=Cartesian   XorR=-9.6   Y=2.8   Z=-16   SpecialJt=No   GUID=99b459cb-c73b-46ba-9e36-145b8b0207fa
   Joint=42   CoordSys=GLOBAL   CoordType=Cartesian   XorR=-4.8   Y=2.8   Z=-14.2059650684231   SpecialJt=No   GUID=1d1872a5-15f5-47f8-b3a4-b9753d615865
   Joint=43   CoordSys=GLOBAL   CoordType=Cartesian   XorR=-4.8   Y=2.8   Z=-16   SpecialJt=No   GUID=bf80d9db-75d3-4d03-ab2b-203678ba0ace
   Joint=44   CoordSys=GLOBAL   CoordType=Cartesian   XorR=0   Y=2.8   Z=-14.2059650684231   SpecialJt=No   GUID=0c26591d-4e97-4f71-8dbd-f2dd190c42c2
   Joint=45   CoordSys=GLOBAL   CoordType=Cartesian   XorR=0   Y=2.8   Z=-16   SpecialJt=No   GUID=7ba7d906-6342-4dc3-8d66-b480ffef1e9a
   Joint=46   CoordSys=GLOBAL   CoordType=Cartesian   XorR=4.8   Y=2.8   Z=-14.2059650684231   SpecialJt=No   GUID=4a97a596-34af-4b08-aeee-0b1927ac74ce
   Joint=47   CoordSys=GLOBAL   CoordType=Cartesian   XorR=4.8   Y=2.8   Z=-16   SpecialJt=No   GUID=65cfc33e-4796-4228-8d93-749e8a4c428a
   Joint=48   CoordSys=GLOBAL   CoordType=Cartesian   XorR=9.6   Y=2.8   Z=-14.2059650684231   SpecialJt=No   GUID=34c0baad-edd1-4147-974c-07b0d61afa00
   Joint=49   CoordSys=GLOBAL   CoordType=Cartesian   XorR=9.6   Y=2.8   Z=-16   SpecialJt=No   GUID=6e05c396-8678-43c5-8652-0bd37cf893e2
   Joint=50   CoordSys=GLOBAL   CoordType=Cartesian   XorR=-10   Y=-5   Z=0   SpecialJt=No   GUID=7f0ec118-7d5d-4be4-9ef8-77d4b16c56ee
   Joint=51   CoordSys=GLOBAL   CoordType=Cartesian   XorR=10   Y=-5   Z=0   SpecialJt=No   GUID=a19ef760-255b-41e8-a04b-f07f94c1650d
   Joint=52   CoordSys=GLOBAL   CoordType=Cartesian   XorR=-10   Y=5   Z=0   SpecialJt=No   GUID=fa9980b4-5c83-4375-bfd9-e4b3fb587303
   Joint=53   CoordSys=GLOBAL   CoordType=Cartesian   XorR=10   Y=5   Z=0   SpecialJt=No   GUID=2e8c6f98-62ef-4ee1-9dfb-dc22e304b814
 
TABLE:  "JOINT PATTERN DEFINITIONS"
   Pattern=Default
 
TABLE:  "JOINT RESTRAINT ASSIGNMENTS"
   Joint=26   U1=Yes   U2=Yes   U3=No   R1=Yes   R2=Yes   R3=Yes
   Joint=27   U1=No   U2=No   U3=Yes   R1=No   R2=No   R3=No
   Joint=29   U1=Yes   U2=Yes   U3=No   R1=Yes   R2=Yes   R3=Yes
   Joint=30   U1=No   U2=No   U3=Yes   R1=No   R2=No   R3=No
   Joint=32   U1=Yes   U2=Yes   U3=No   R1=Yes   R2=Yes   R3=Yes
   Joint=33   U1=No   U2=No   U3=Yes   R1=No   R2=No   R3=No
   Joint=35   U1=Yes   U2=Yes   U3=No   R1=Yes   R2=Yes   R3=Yes
   Joint=36   U1=No   U2=No   U3=Yes   R1=No   R2=No   R3=No
   Joint=38   U1=Yes   U2=Yes   U3=No   R1=Yes   R2=Yes   R3=Yes
   Joint=39   U1=No   U2=No   U3=Yes   R1=No   R2=No   R3=No
   Joint=40   U1=Yes   U2=Yes   U3=No   R1=Yes   R2=Yes   R3=Yes
   Joint=41   U1=No   U2=No   U3=Yes   R1=No   R2=No   R3=No
   Joint=42   U1=Yes   U2=Yes   U3=No   R1=Yes   R2=Yes   R3=Yes
   Joint=43   U1=No   U2=No   U3=Yes   R1=No   R2=No   R3=No
   Joint=44   U1=Yes   U2=Yes   U3=No   R1=Yes   R2=Yes   R3=Yes
   Joint=45   U1=No   U2=No   U3=Yes   R1=No   R2=No   R3=No
   Joint=46   U1=Yes   U2=Yes   U3=No   R1=Yes   R2=Yes   R3=Yes
   Joint=47   U1=No   U2=No   U3=Yes   R1=No   R2=No   R3=No
   Joint=48   U1=Yes   U2=Yes   U3=No   R1=Yes   R2=Yes   R3=Yes
   Joint=49   U1=No   U2=No   U3=Yes   R1=No   R2=No   R3=No
 
TABLE:  "LOAD CASE DEFINITIONS"
   Case=DEAD   Type=LinStatic   InitialCond=Zero   DesTypeOpt="Prog Det"   DesignType=Dead   DesActOpt="Prog Det"   DesignAct=Non-Composite   AutoType=None   RunCase=Yes
   Case=MODAL   Type=LinModal   InitialCond=Zero   DesTypeOpt="Prog Det"   DesignType=Other   DesActOpt="Prog Det"   DesignAct=Other   AutoType=None   RunCase=Yes
   Case=LL   Type=LinStatic   InitialCond=Zero   DesTypeOpt="Prog Det"   DesignType=Live   DesActOpt="Prog Det"   DesignAct="Short-Term Composite"   AutoType=None   RunCase=Yes
 
TABLE:  "LOAD PATTERN DEFINITIONS"
   LoadPat=DEAD   DesignType=Dead   SelfWtMult=1
   LoadPat=LL   DesignType=Live   SelfWtMult=0
 
TABLE:  "MASS SOURCE"
   MassSource=MSSSRC1   Elements=Yes   Masses=Yes   Loads=No   IsDefault=Yes
 
TABLE:  "MATERIAL PROPERTIES 01 - GENERAL"
   Material=A706   Type=Rebar   SymType=Uniaxial   TempDepend=No   Color=Gray8Dark   GUID=30185aab-1311-4f4b-9ffe-ddad707d22d9   Notes="ASTM A706 added 8/23/2025 4:27:57 PM"
   Material=BTCT   Type=Concrete   SymType=Isotropic   TempDepend=No   Color=Blue   Notes="Concrete added 24-Feb-23 16:30:01"
   Material=BTCTCOC   Type=Concrete   SymType=Isotropic   TempDepend=No   Color=Blue   Notes="Concrete added 24-Feb-23 16:30:01"
   Material=Steel   Type=Steel   SymType=Isotropic   TempDepend=No   Color=Magenta   GUID=2f952889-4898-4964-97a4-5fb5c5008d33   Notes="Steel added 8/24/2025 2:51:43 PM"
   Material=Tendon   Type=Tendon   SymType=Uniaxial   TempDepend=No   Color=Yellow   GUID=7dfcd093-823e-4b3a-b96f-35d5bcaf456f   Notes="Tendon added 8/24/2025 2:51:43 PM"
 
TABLE:  "MATERIAL PROPERTIES 02 - BASIC MECHANICAL PROPERTIES"
   Material=A706   UnitWeight=7.84904757236607   UnitMass=0.800380070686609   E1=20389019.1580383   A1=1.16999994421006E-05
   Material=BTCT   UnitWeight=2.40276966501002   UnitMass=0.245014307353044   E1=2900000   G12=1208333.33333333   U12=0.2   A1=9.9E-06
   Material=BTCTCOC   UnitWeight=2.40276966501002   UnitMass=0.245014307353044   E1=3800000000   G12=1583333333.33333   U12=0.2   A1=9.9E-06
   Material=Steel   UnitWeight=7.84904757236607   UnitMass=0.800380070686609   E1=20389019.1580383   G12=7841930.44539935   U12=0.3   A1=1.17E-05
   Material=Tendon   UnitWeight=7.84904757236607   UnitMass=0.800380070686609   E1=20037484.3449687   A1=1.16999994421006E-05
 
TABLE:  "MATERIAL PROPERTIES 03A - STEEL DATA"
   Material=Steel   Fy=35153.4813069626   Fu=45699.5256990514   EffFy=38668.8294376589   EffFu=50269.4782689565   SSCurveOpt=Simple   SSHysType=Kinematic   SHard=0.015   SMax=0.11   SRup=0.17   FinalSlope=-0.1   CoupModType="Von Mises"
 
TABLE:  "MATERIAL PROPERTIES 03B - CONCRETE DATA"
   Material=BTCT   Fc=2812.27850455701   eFc=2812.27850455701   LtWtConc=No   SSCurveOpt=Mander   SSHysType=Takeda   SFc=0.002   SCap=0.005   FinalSlope=-0.1   FAngle=0   DAngle=0   CoupModType="Modified Darwin-Pecknold"
   Material=BTCTCOC   Fc=2812.27850455701   eFc=2812.27850455701   LtWtConc=No   SSCurveOpt=Mander   SSHysType=Takeda   SFc=0.002   SCap=0.005   FinalSlope=-0.1   FAngle=0   DAngle=0   CoupModType="Modified Darwin-Pecknold"
 
TABLE:  "MATERIAL PROPERTIES 03E - REBAR DATA"
   Material=A706   Fy=42184.1775683551   Fu=56245.5700911402   EffFy=46402.5953251907   EffFu=61870.1271002542   SSCurveOpt=Simple   SSHysType=Kinematic   SHard=0.011   SCap=0.11   FinalSlope=-0.1   UseCTDef=No   CoupModType="Von Mises"
 
TABLE:  "MATERIAL PROPERTIES 03F - TENDON DATA"
   Material=Tendon   Fy=172322.365366731   Fu=189828.799057598   SSCurveOpt="270 ksi"   SSHysType=Kinematic   FinalSlope=-0.1   CoupModType="Von Mises"
 
TABLE:  "MATERIAL PROPERTIES 03J - COUPLED NONLINEAR VON MISES DATA"
   Material=A706   YieldStress=46402.5953251907   LinIsoHard=No   LinKinHard=No   NLIsoSaHard=No
   Material=Steel   YieldStress=38668.8294376589   LinIsoHard=No   LinKinHard=No   NLIsoSaHard=No
   Material=Tendon   YieldStress=172322.365366731   LinIsoHard=No   LinKinHard=No   NLIsoSaHard=No
 
TABLE:  "MATERIAL PROPERTIES 06 - DAMPING PARAMETERS"
   Material=A706   ModalRatio=0   VisMass=0   VisStiff=0   HysMass=0   HysStiff=0
   Material=BTCT   ModalRatio=0   VisMass=0   VisStiff=0   HysMass=0   HysStiff=0
   Material=BTCTCOC   ModalRatio=0   VisMass=0   VisStiff=0   HysMass=0   HysStiff=0
   Material=Steel   ModalRatio=0   VisMass=0   VisStiff=0   HysMass=0   HysStiff=0
   Material=Tendon   ModalRatio=0   VisMass=0   VisStiff=0   HysMass=0   HysStiff=0
 
TABLE:  "MATERIAL PROPERTIES 09 - ACCEPTANCE CRITERIA"
   Material=A706   IOTens=0.01   LSTens=0.02   CPTens=0.05   IOComp=-0.005   LSComp=-0.01   CPComp=-0.02
   Material=BTCT   IOTens=0.01   LSTens=0.02   CPTens=0.05   IOComp=-0.003   LSComp=-0.006   CPComp=-0.015   IgnoreTens=Yes
   Material=BTCTCOC   IOTens=0.01   LSTens=0.02   CPTens=0.05   IOComp=-0.003   LSComp=-0.006   CPComp=-0.015   IgnoreTens=Yes
   Material=Steel   IOTens=0.01   LSTens=0.02   CPTens=0.05   IOComp=-0.005   LSComp=-0.01   CPComp=-0.02
   Material=Tendon   IOTens=0.015   LSTens=0.023   CPTens=0.03   IOComp=-0.015   LSComp=-0.023   CPComp=-0.03
 
TABLE:  "OPTIONS - COLORS - DISPLAY"
   DeviceType=Screen   Points=Blue   LinesFrame=Blue   LinesFrmDL=Blue   LinesCable=Green   LinesTendon=Green   SpringLinks=Green   Restraints=Green   Releases=Green   Axes=Cyan   Text=Black   ShadowLines=Gray8Dark   GuideLines=Gray8Dark _
        Highlight=Red   Selection=10504778   AreaFillBot=Red   AreaFillTop=16744703   AreaFillSd=Red   AreaEdge=DarkRed   SolidF1=Red   SolidF2=Blue   SolidF3=Green   SolidF4=Yellow   SolidF5=White   SolidF6=Cyan   SolidEdge=DarkRed _
        Floor=Gray4   Background=White   BGLowLeft=White   BGLowRight=White   BGUpRight=White   Darkness=0.5
   DeviceType=Printer   Points=Gray8Dark   LinesFrame=Black   LinesFrmDL=Gray4   LinesCable=Black   LinesTendon=Black   SpringLinks=Gray8Dark   Restraints=Gray8Dark   Releases=Gray4   Axes=Black   Text=Black   ShadowLines=Gray4 _
        GuideLines=Gray4   Highlight=Black   Selection=Black   AreaFillBot=Gray4   AreaFillTop=Gray8Dark   AreaFillSd=Gray4   AreaEdge=Black   SolidF1=Gray1Light   SolidF2=Gray2   SolidF3=Gray3   SolidF4=Gray4   SolidF5=Gray5 _
        SolidF6=Gray6   SolidEdge=Black   Floor=Gray4   Background=White   BGLowLeft=White   BGLowRight=White   BGUpRight=White   Darkness=0.5
   DeviceType="Color Printer"   Points=Blue   LinesFrame=Blue   LinesFrmDL=Blue   LinesCable=Green   LinesTendon=Green   SpringLinks=Green   Restraints=Green   Releases=Green   Axes=Cyan   Text=Black   ShadowLines=Gray8Dark _
        GuideLines=Gray8Dark   Highlight=Red   Selection=10504778   AreaFillBot=Red   AreaFillTop=16744703   AreaFillSd=Red   AreaEdge=DarkRed   SolidF1=Red   SolidF2=Blue   SolidF3=Green   SolidF4=Yellow   SolidF5=White   SolidF6=Cyan _
        SolidEdge=DarkRed   Floor=Gray4   Background=White   BGLowLeft=White   BGLowRight=White   BGUpRight=White   Darkness=0.5
 
TABLE:  "OPTIONS - COLORS - OUTPUT"
   DeviceType=Screen   Contour1=13107400   Contour2=6553828   Contour3=Red   Contour4=16639   Contour5=Orange   Contour6=43775   Contour7=54527   Contour8=Yellow   Contour9=65408   Contour10=Green   Contour11=8453888   Contour12=Cyan _
        Contour13=16755200   Contour14=16733440   Contour15=Blue   Transpare=0.5   Ratio1=Cyan   Ratio2=Green   Ratio3=Yellow   Ratio4=Orange   Ratio5=Red   RatioNotD=Gray4   RatioNotC=Red   RatioVal1=0.5   RatioVal2=0.7   RatioVal3=0.9 _
        RatioVal4=1   DFillPos=Blue   DFillNeg=Red   DFillRPos=Green   DFillRNeg=Green
   DeviceType=Printer   Contour1=Black   Contour2=3158064   Contour3=4210752   Contour4=5263440   Contour5=6316128   Contour6=7368816   Contour7=Gray8Dark   Contour8=Gray7   Contour9=Gray6   Contour10=Gray5   Contour11=Gray4 _
        Contour12=Gray3   Contour13=Gray2   Contour14=Gray1Light   Contour15=White   Transpare=0   Ratio1=Gray2   Ratio2=Gray4   Ratio3=Gray8Dark   Ratio4=4210752   Ratio5=Black   RatioNotD=Gray4   RatioNotC=Black   RatioVal1=0.5 _
        RatioVal2=0.7   RatioVal3=0.9   RatioVal4=1   DFillPos=Gray8Dark   DFillNeg=Gray8Dark   DFillRPos=4210752   DFillRNeg=4210752
   DeviceType="Color Printer"   Contour1=13107400   Contour2=6553828   Contour3=Red   Contour4=16639   Contour5=Orange   Contour6=43775   Contour7=54527   Contour8=Yellow   Contour9=65408   Contour10=Green   Contour11=8453888 _
        Contour12=Cyan   Contour13=16755200   Contour14=16733440   Contour15=Blue   Transpare=0   Ratio1=Cyan   Ratio2=Green   Ratio3=Yellow   Ratio4=Orange   Ratio5=Red   RatioNotD=Gray4   RatioNotC=Red   RatioVal1=0.5   RatioVal2=0.7 _
        RatioVal3=0.9   RatioVal4=1   DFillPos=Blue   DFillNeg=Red   DFillRPos=Green   DFillRNeg=Green
 
TABLE:  "OVERWRITES - CONCRETE DESIGN - CSA-A233-14"
   Frame=1   DesignSect="Program Determined"   FrameType="Program Determined"   RLLF=0   XLMajor=0   XLMinor=0   XKMajor=0   XKMinor=0   CmMajor=0   CmMinor=0   DbMajor=0   DbMinor=0   DsMajor=0   DsMinor=0   Rd=0   Ro=0   MaxAggSize=0
   Frame=2   DesignSect="Program Determined"   FrameType="Program Determined"   RLLF=0   XLMajor=0   XLMinor=0   XKMajor=0   XKMinor=0   CmMajor=0   CmMinor=0   DbMajor=0   DbMinor=0   DsMajor=0   DsMinor=0   Rd=0   Ro=0   MaxAggSize=0
   Frame=3   DesignSect="Program Determined"   FrameType="Program Determined"   RLLF=0   XLMajor=0   XLMinor=0   XKMajor=0   XKMinor=0   CmMajor=0   CmMinor=0   DbMajor=0   DbMinor=0   DsMajor=0   DsMinor=0   Rd=0   Ro=0   MaxAggSize=0
   Frame=4   DesignSect="Program Determined"   FrameType="Program Determined"   RLLF=0   XLMajor=0   XLMinor=0   XKMajor=0   XKMinor=0   CmMajor=0   CmMinor=0   DbMajor=0   DbMinor=0   DsMajor=0   DsMinor=0   Rd=0   Ro=0   MaxAggSize=0
   Frame=5   DesignSect="Program Determined"   FrameType="Program Determined"   RLLF=0   XLMajor=0   XLMinor=0   XKMajor=0   XKMinor=0   CmMajor=0   CmMinor=0   DbMajor=0   DbMinor=0   DsMajor=0   DsMinor=0   Rd=0   Ro=0   MaxAggSize=0
   Frame=6   DesignSect="Program Determined"   FrameType="Program Determined"   RLLF=0   XLMajor=0   XLMinor=0   XKMajor=0   XKMinor=0   CmMajor=0   CmMinor=0   DbMajor=0   DbMinor=0   DsMajor=0   DsMinor=0   Rd=0   Ro=0   MaxAggSize=0
   Frame=7   DesignSect="Program Determined"   FrameType="Program Determined"   RLLF=0   XLMajor=0   XLMinor=0   XKMajor=0   XKMinor=0   CmMajor=0   CmMinor=0   DbMajor=0   DbMinor=0   DsMajor=0   DsMinor=0   Rd=0   Ro=0   MaxAggSize=0
   Frame=8   DesignSect="Program Determined"   FrameType="Program Determined"   RLLF=0   XLMajor=0   XLMinor=0   XKMajor=0   XKMinor=0   CmMajor=0   CmMinor=0   DbMajor=0   DbMinor=0   DsMajor=0   DsMinor=0   Rd=0   Ro=0   MaxAggSize=0
   Frame=9   DesignSect="Program Determined"   FrameType="Program Determined"   RLLF=0   XLMajor=0   XLMinor=0   XKMajor=0   XKMinor=0   CmMajor=0   CmMinor=0   DbMajor=0   DbMinor=0   DsMajor=0   DsMinor=0   Rd=0   Ro=0   MaxAggSize=0
   Frame=10   DesignSect="Program Determined"   FrameType="Program Determined"   RLLF=0   XLMajor=0   XLMinor=0   XKMajor=0   XKMinor=0   CmMajor=0   CmMinor=0   DbMajor=0   DbMinor=0   DsMajor=0   DsMinor=0   Rd=0   Ro=0   MaxAggSize=0
   Frame=11   DesignSect="Program Determined"   FrameType="Program Determined"   RLLF=0   XLMajor=0   XLMinor=0   XKMajor=0   XKMinor=0   CmMajor=0   CmMinor=0   DbMajor=0   DbMinor=0   DsMajor=0   DsMinor=0   Rd=0   Ro=0   MaxAggSize=0
   Frame=12   DesignSect="Program Determined"   FrameType="Program Determined"   RLLF=0   XLMajor=0   XLMinor=0   XKMajor=0   XKMinor=0   CmMajor=0   CmMinor=0   DbMajor=0   DbMinor=0   DsMajor=0   DsMinor=0   Rd=0   Ro=0   MaxAggSize=0
   Frame=13   DesignSect="Program Determined"   FrameType="Program Determined"   RLLF=0   XLMajor=0   XLMinor=0   XKMajor=0   XKMinor=0   CmMajor=0   CmMinor=0   DbMajor=0   DbMinor=0   DsMajor=0   DsMinor=0   Rd=0   Ro=0   MaxAggSize=0
   Frame=14   DesignSect="Program Determined"   FrameType="Program Determined"   RLLF=0   XLMajor=0   XLMinor=0   XKMajor=0   XKMinor=0   CmMajor=0   CmMinor=0   DbMajor=0   DbMinor=0   DsMajor=0   DsMinor=0   Rd=0   Ro=0   MaxAggSize=0
   Frame=15   DesignSect="Program Determined"   FrameType="Program Determined"   RLLF=0   XLMajor=0   XLMinor=0   XKMajor=0   XKMinor=0   CmMajor=0   CmMinor=0   DbMajor=0   DbMinor=0   DsMajor=0   DsMinor=0   Rd=0   Ro=0   MaxAggSize=0
   Frame=16   DesignSect="Program Determined"   FrameType="Program Determined"   RLLF=0   XLMajor=0   XLMinor=0   XKMajor=0   XKMinor=0   CmMajor=0   CmMinor=0   DbMajor=0   DbMinor=0   DsMajor=0   DsMinor=0   Rd=0   Ro=0   MaxAggSize=0
   Frame=17   DesignSect="Program Determined"   FrameType="Program Determined"   RLLF=0   XLMajor=0   XLMinor=0   XKMajor=0   XKMinor=0   CmMajor=0   CmMinor=0   DbMajor=0   DbMinor=0   DsMajor=0   DsMinor=0   Rd=0   Ro=0   MaxAggSize=0
   Frame=18   DesignSect="Program Determined"   FrameType="Program Determined"   RLLF=0   XLMajor=0   XLMinor=0   XKMajor=0   XKMinor=0   CmMajor=0   CmMinor=0   DbMajor=0   DbMinor=0   DsMajor=0   DsMinor=0   Rd=0   Ro=0   MaxAggSize=0
   Frame=19   DesignSect="Program Determined"   FrameType="Program Determined"   RLLF=0   XLMajor=0   XLMinor=0   XKMajor=0   XKMinor=0   CmMajor=0   CmMinor=0   DbMajor=0   DbMinor=0   DsMajor=0   DsMinor=0   Rd=0   Ro=0   MaxAggSize=0
   Frame=20   DesignSect="Program Determined"   FrameType="Program Determined"   RLLF=0   XLMajor=0   XLMinor=0   XKMajor=0   XKMinor=0   CmMajor=0   CmMinor=0   DbMajor=0   DbMinor=0   DsMajor=0   DsMinor=0   Rd=0   Ro=0   MaxAggSize=0
# ... 16 like lines cut
 
TABLE:  "PREFERENCES - ALUMINUM DESIGN - AA 2015"
   THDesign=Envelopes   SRatioLimit=1   Provision=ASD   LatFact=1.33333333333333   UseLatFact=No   Bridge=No   OmegaTy=1.65   OmegaTr=1.95   OmegaC=1.65   OmegaBo=1.65   OmegaBr=1.95   OmegaVo=1.65   OmegaVr=1.95
 
TABLE:  "PREFERENCES - COLD FORMED DESIGN - AISI-ASD96"
   THDesign=Envelopes   FrameType="Braced Frame"   SRatioLimit=1   MaxIter=1   OmegaBS=1.67   OmegaBUS=1.67   OmegaBLTB=1.67   OmegaVS=1.67   OmegaVNS=1.5   OmegaT=1.67   OmegaC=1.8
 
TABLE:  "PREFERENCES - CONCRETE DESIGN - CSA-A233-14"
   THDesign=Envelopes   NumCurves=24   NumPoints=11   MinEccen=Yes   BCCDesign=Yes   CTorsion=Yes   PatLLF=0.75   UFLimit=0.95   PhiS=0.85   PhiC=0.65
 
TABLE:  "PREFERENCES - CONCRETE SHELL DESIGN - EUROCODE 2-2004"
   Country="CEN Default"   GammaS=1.15   GammaC=1.5   AlphaCC=1
 
TABLE:  "PREFERENCES - DIMENSIONAL"
   MergeTol=0.001   FineGrid=0.25   Nudge=0.25   SelectTol=3   SnapTol=12   SLineThick=1   PLineThick=4   MaxFont=8   MinFont=3   AutoZoom=10   ShrinkFact=70   TextFileLen=240
 
TABLE:  "PREFERENCES - STEEL DESIGN - AISC 360-10"
   THDesign=Envelopes   FrameType=SMF   PatLLF=0.75   SRatioLimit=0.95   MaxIter=1   SDC=D   SeisCode=No   SeisLoad=No   ImpFactor=1   SystemRho=1   SystemSds=0.5   SystemR=8   SystemCd=5.5   Omega0=3   Provision=LRFD _
        AMethod="Direct Analysis"   SOMethod="General 2nd Order"   SRMethod="Tau-b Fixed"   NLCoeff=0.002   PhiB=0.9   PhiC=0.9   PhiTY=0.9   PhiTF=0.75   PhiV=0.9   PhiVRolledI=1   PhiVT=0.9   PlugWeld=Yes   HSSWelding=ERW   HSSReduceT=No _
        CheckDefl=No   DLRat=120   SDLAndLLRat=120   LLRat=360   TotalRat=240   NetRat=240
 
TABLE:  "PROGRAM CONTROL"
   ProgramName=SAP2000   Version=24.0.0   CurrUnits="Tonf, m, C"   SteelCode="AISC 360-10"   ConcCode="CSA A23.3-14"   AlumCode="AA 2015"   ColdCode=AISI-ASD96   RegenHinge=Yes
 
TABLE:  "PROJECT INFORMATION"
   Item="Company Name"   Data=po
   Item="Client Name"
   Item="Project Name"
   Item="Project Number"
   Item="Model Name"
   Item="Model Description"
   Item="Revision Number"
   Item="Frame Type"
   Item=Engineer
   Item=Checker
   Item=Supervisor
   Item="Issue Code"
   Item="Design Code"
 
TABLE:  "REBAR SIZES"
   RebarID=#2   Area=3.2258E-05   Diameter=0.00635
   RebarID=#3   Area=7.09675996154547E-05   Diameter=0.009525
   RebarID=#4   Area=0.000129032001922727   Diameter=0.0127
   RebarID=#5   Area=0.000199999601538181   Diameter=0.015875
   RebarID=#6   Area=0.000283870398461819   Diameter=0.01905
   RebarID=#7   Area=0.000387096015381813   Diameter=0.022225
   RebarID=#8   Area=0.000509676413843632   Diameter=0.0254
   RebarID=#9   Area=0.00064516   Diameter=0.0286512005329132
   RebarID=#10   Area=0.00081935318769455   Diameter=0.0322579995155334
   RebarID=#11   Area=0.00100644956308365   Diameter=0.0358139991521835
   RebarID=#14   Area=0.00145161   Diameter=0.0430021989583969
   RebarID=#18   Area=0.00258064   Diameter=0.0573277992248535
   RebarID=10M   Area=0.000100000004162606   Diameter=0.0113000003604438
   RebarID=15M   Area=0.000200000008325212   Diameter=0.0160000002402959
   RebarID=20M   Area=0.000300000012487818   Diameter=0.0195000002928606
   RebarID=25M   Area=0.000500000020813031   Diameter=0.0252000011414055
   RebarID=30M   Area=0.000700000029138243   Diameter=0.0299000000675832
   RebarID=35M   Area=0.00100000004162606   Diameter=0.0357000012990997
   RebarID=45M   Area=0.00150000006243909   Diameter=0.0437000014192476
   RebarID=55M   Area=0.00250000010406515   Diameter=0.056400002372922
   RebarID=6d   Area=2.83000004150781E-05   Diameter=0.00600000009011096
   RebarID=8d   Area=5.03000013308514E-05   Diameter=0.00800000012014795
   RebarID=10d   Area=7.85000032676458E-05   Diameter=0.0100000001501849
   RebarID=12d   Area=0.000113000004703745   Diameter=0.0120000001802219
   RebarID=14d   Area=0.000154000006410413   Diameter=0.0140000002102589
   RebarID=16d   Area=0.000201000008366838   Diameter=0.0160000002402959
   RebarID=20d   Area=0.000314000013070583   Diameter=0.0200000003003699
   RebarID=25d   Area=0.000491000020438396   Diameter=0.0250000003754623
   RebarID=26d   Area=0.000531000022103439   Diameter=0.0260000003904808
   RebarID=28d   Area=0.000616000025641654   Diameter=0.0280000004205178
   RebarID=N12   Area=0.000113000004703745   Diameter=0.0120000001802219
   RebarID=N16   Area=0.000201000008366838   Diameter=0.0160000002402959
   RebarID=N20   Area=0.000314000013070583   Diameter=0.0200000003003699
   RebarID=N24   Area=0.00045200001881498   Diameter=0.0240000003604438
   RebarID=N28   Area=0.000616000025641654   Diameter=0.0280000004205178
   RebarID=N32   Area=0.000804000033467353   Diameter=0.0320000004805918
   RebarID=N36   Area=0.00102000004245858   Diameter=0.0360000005406658
 
TABLE:  "SOLID PROPERTY DEFINITIONS"
   SolidProp=Solid1   Material=BTCT   MatAngleA=0   MatAngleB=0   MatAngleC=0   InComp=Yes   Color=Gray8Dark
 
END TABLE DATA
