File D:\ResearchLab\02_Projects\02_Projects\Tap chi XD_SFOA\code\SOO_MPJ\MPJ_Sap\SOO_Cost_W01\MPJ_1.$2k was saved on m/d/yy at h:mm:ss
 
TABLE:  "ACTIVE DEGREES OF FREEDOM"
   UX=Yes   UY=Yes   UZ=Yes   RX=Yes   RY=Yes   RZ=Yes
 
TABLE:  "ANALYSIS OPTIONS"
   Solver=Advanced   SolverProc=Auto   Force32Bit=No   StiffCase=None   GeomMod=None   HingeOpt="In Elements"   NumAThreads=0   MaxFileSize=0   NumDThreads=0   NumRThreads=0   UseMMFiles="Program Determined"   AllowDiff=No
 
TABLE:  "AREA AUTO MESH ASSIGNMENTS"
   Area=229790   MeshType="Number of Elements"   MeshGroup=ALL   Number1=3   Number2=3   LocalEdge=No   LocalFace=No   SuppEdge=No   SuppFace=No   SubMesh=No
   Area=229791   MeshType="Number of Elements"   MeshGroup=ALL   Number1=3   Number2=3   LocalEdge=No   LocalFace=No   SuppEdge=No   SuppFace=No   SubMesh=No
   Area=229792   MeshType="Number of Elements"   MeshGroup=ALL   Number1=3   Number2=3   LocalEdge=No   LocalFace=No   SuppEdge=No   SuppFace=No   SubMesh=No
   Area=229793   MeshType="Number of Elements"   MeshGroup=ALL   Number1=3   Number2=3   LocalEdge=No   LocalFace=No   SuppEdge=No   SuppFace=No   SubMesh=No
   Area=229794   MeshType="Number of Elements"   MeshGroup=ALL   Number1=3   Number2=3   LocalEdge=No   LocalFace=No   SuppEdge=No   SuppFace=No   SubMesh=No
   Area=229795   MeshType="Number of Elements"   MeshGroup=ALL   Number1=3   Number2=3   LocalEdge=No   LocalFace=No   SuppEdge=No   SuppFace=No   SubMesh=No
   Area=229796   MeshType="Number of Elements"   MeshGroup=ALL   Number1=3   Number2=3   LocalEdge=No   LocalFace=No   SuppEdge=No   SuppFace=No   SubMesh=No
   Area=229797   MeshType="Number of Elements"   MeshGroup=ALL   Number1=3   Number2=3   LocalEdge=No   LocalFace=No   SuppEdge=No   SuppFace=No   SubMesh=No
   Area=229798   MeshType="Number of Elements"   MeshGroup=ALL   Number1=3   Number2=3   LocalEdge=No   LocalFace=No   SuppEdge=No   SuppFace=No   SubMesh=No
   Area=229799   MeshType="Number of Elements"   MeshGroup=ALL   Number1=3   Number2=3   LocalEdge=No   LocalFace=No   SuppEdge=No   SuppFace=No   SubMesh=No
   Area=229800   MeshType="Number of Elements"   MeshGroup=ALL   Number1=3   Number2=3   LocalEdge=No   LocalFace=No   SuppEdge=No   SuppFace=No   SubMesh=No
   Area=229801   MeshType="Number of Elements"   MeshGroup=ALL   Number1=3   Number2=3   LocalEdge=No   LocalFace=No   SuppEdge=No   SuppFace=No   SubMesh=No
   Area=229802   MeshType="Number of Elements"   MeshGroup=ALL   Number1=3   Number2=3   LocalEdge=No   LocalFace=No   SuppEdge=No   SuppFace=No   SubMesh=No
   Area=229803   MeshType="Number of Elements"   MeshGroup=ALL   Number1=3   Number2=3   LocalEdge=No   LocalFace=No   SuppEdge=No   SuppFace=No   SubMesh=No
   Area=229804   MeshType="Number of Elements"   MeshGroup=ALL   Number1=3   Number2=3   LocalEdge=No   LocalFace=No   SuppEdge=No   SuppFace=No   SubMesh=No
   Area=229805   MeshType="Number of Elements"   MeshGroup=ALL   Number1=3   Number2=3   LocalEdge=No   LocalFace=No   SuppEdge=No   SuppFace=No   SubMesh=No
   Area=229806   MeshType="Number of Elements"   MeshGroup=ALL   Number1=3   Number2=3   LocalEdge=No   LocalFace=No   SuppEdge=No   SuppFace=No   SubMesh=No
   Area=229807   MeshType="Number of Elements"   MeshGroup=ALL   Number1=3   Number2=3   LocalEdge=No   LocalFace=No   SuppEdge=No   SuppFace=No   SubMesh=No
   Area=229808   MeshType="Number of Elements"   MeshGroup=ALL   Number1=3   Number2=3   LocalEdge=No   LocalFace=No   SuppEdge=No   SuppFace=No   SubMesh=No
   Area=229809   MeshType="Number of Elements"   MeshGroup=ALL   Number1=3   Number2=3   LocalEdge=No   LocalFace=No   SuppEdge=No   SuppFace=No   SubMesh=No
# ... 4 like lines cut
 
TABLE:  "AREA LOADS - UNIFORM"
   Area=229790   LoadPat=LL   CoordSys=GLOBAL   Dir=Gravity   UnifLoad=1.00034158457019
   Area=229791   LoadPat=LL   CoordSys=GLOBAL   Dir=Gravity   UnifLoad=1.00034158457019
   Area=229792   LoadPat=LL   CoordSys=GLOBAL   Dir=Gravity   UnifLoad=1.00034158457019
   Area=229793   LoadPat=LL   CoordSys=GLOBAL   Dir=Gravity   UnifLoad=1.00034158457019
   Area=229794   LoadPat=LL   CoordSys=GLOBAL   Dir=Gravity   UnifLoad=1.00034158457019
   Area=229795   LoadPat=LL   CoordSys=GLOBAL   Dir=Gravity   UnifLoad=1.00034158457019
   Area=229796   LoadPat=LL   CoordSys=GLOBAL   Dir=Gravity   UnifLoad=1.00034158457019
   Area=229797   LoadPat=LL   CoordSys=GLOBAL   Dir=Gravity   UnifLoad=1.00034158457019
   Area=229798   LoadPat=LL   CoordSys=GLOBAL   Dir=Gravity   UnifLoad=1.00034158457019
   Area=229799   LoadPat=LL   CoordSys=GLOBAL   Dir=Gravity   UnifLoad=1.00034158457019
   Area=229800   LoadPat=LL   CoordSys=GLOBAL   Dir=Gravity   UnifLoad=1.00034158457019
   Area=229801   LoadPat=LL   CoordSys=GLOBAL   Dir=Gravity   UnifLoad=1.00034158457019
   Area=229802   LoadPat=LL   CoordSys=GLOBAL   Dir=Gravity   UnifLoad=1.00034158457019
   Area=229803   LoadPat=LL   CoordSys=GLOBAL   Dir=Gravity   UnifLoad=1.00034158457019
   Area=229804   LoadPat=LL   CoordSys=GLOBAL   Dir=Gravity   UnifLoad=1.00034158457019
   Area=229805   LoadPat=LL   CoordSys=GLOBAL   Dir=Gravity   UnifLoad=1.00034158457019
   Area=229806   LoadPat=LL   CoordSys=GLOBAL   Dir=Gravity   UnifLoad=1.00034158457019
   Area=229807   LoadPat=LL   CoordSys=GLOBAL   Dir=Gravity   UnifLoad=1.00034158457019
   Area=229808   LoadPat=LL   CoordSys=GLOBAL   Dir=Gravity   UnifLoad=1.00034158457019
   Area=229809   LoadPat=LL   CoordSys=GLOBAL   Dir=Gravity   UnifLoad=1.00034158457019
# ... 4 like lines cut
 
TABLE:  "AREA SECTION ASSIGNMENTS"
   Area=229790   Section=Deck   MatProp=Default
   Area=229791   Section=Deck   MatProp=Default
   Area=229792   Section=Deck   MatProp=Default
   Area=229793   Section=Deck   MatProp=Default
   Area=229794   Section=Deck   MatProp=Default
   Area=229795   Section=Deck   MatProp=Default
   Area=229796   Section=Deck   MatProp=Default
   Area=229797   Section=Deck   MatProp=Default
   Area=229798   Section=Deck   MatProp=Default
   Area=229799   Section=Deck   MatProp=Default
   Area=229800   Section=Deck   MatProp=Default
   Area=229801   Section=Deck   MatProp=Default
   Area=229802   Section=Deck   MatProp=Default
   Area=229803   Section=Deck   MatProp=Default
   Area=229804   Section=Deck   MatProp=Default
   Area=229805   Section=Deck   MatProp=Default
   Area=229806   Section=Deck   MatProp=Default
   Area=229807   Section=Deck   MatProp=Default
   Area=229808   Section=Deck   MatProp=Default
   Area=229809   Section=Deck   MatProp=Default
# ... 4 like lines cut
 
TABLE:  "AREA SECTION PROPERTIES"
   Section=Deck   Material=BTCT   MatAngle=0   AreaType=Shell   Type=Shell-Thin   DrillDOF=Yes   Thickness=0.3   BendThick=0.3   Color=Green   F11Mod=1   F22Mod=1   F12Mod=1   M11Mod=1   M22Mod=1   M12Mod=1   V13Mod=1   V23Mod=1   MMod=1 _
        WMod=1   Notes="Added 24-Feb-23 16:56:47"
 
TABLE:  "AREA SECTION PROPERTY DESIGN PARAMETERS"
   Section=Deck   RebarMat=None   RebarOpt=Default
 
TABLE:  "AREA SECTION PROPERTY - TIME DEPENDENT"
   Section=Deck   TypeSize=User   AutoSFSize=1   UserValSize=0.1
 
TABLE:  "AUTO COMBINATION OPTION DATA 01 - GENERAL"
   DesignType=Concrete   AutoGen=Yes
 
TABLE:  "AUTO COMBINATION OPTION DATA 02 - USER DATA"
   DesignType=Concrete   LSType=Strength   LCName=DEAD
   DesignType=Concrete   LSType=Strength   LCName=LL
 
TABLE:  "AUTO WAVE 3 - WAVE CHARACTERISTICS - GENERAL"
   WaveChar=Default   WaveType="From Theory"   KinFactor=1   SWaterDepth=45   WaveHeight=18   WavePeriod=12   WaveTheory=Linear
 
TABLE:  "CASE - MODAL 1 - GENERAL"
   Case=MODAL   ModeType=Eigen   MaxNumModes=12   MinNumModes=1   EigenShift=0   EigenCutoff=0   EigenTol=1E-09   AutoShift=Yes
 
TABLE:  "CASE - STATIC 1 - LOAD ASSIGNMENTS"
   Case=DEAD   LoadType="Load pattern"   LoadName=DEAD   LoadSF=1
   Case=LL   LoadType="Load pattern"   LoadName=LL   LoadSF=1
 
TABLE:  "COMBINATION DEFINITIONS"
   ComboName=COMB1   ComboType="Linear Add"   AutoDesign=No   CaseName=DEAD   ScaleFactor=1   SteelDesign=None   ConcDesign=Strength   AlumDesign=None   ColdDesign=None
   ComboName=COMB2   ComboType="Linear Add"   AutoDesign=No   CaseName=DEAD   ScaleFactor=1   SteelDesign=None   ConcDesign=Strength   AlumDesign=None   ColdDesign=None
   ComboName=COMB2   CaseName=LL   ScaleFactor=1
   ComboName=BAO   ComboType=Envelope   AutoDesign=No   CaseName=COMB1   ScaleFactor=1   SteelDesign=None   ConcDesign=Strength   AlumDesign=None   ColdDesign=None
   ComboName=BAO   CaseName=COMB2   ScaleFactor=1
   ComboName=DCON1   ComboType="Linear Add"   AutoDesign=Yes   CaseName=DEAD   ScaleFactor=1.4   SteelDesign=None   ConcDesign=Strength   AlumDesign=None   ColdDesign=None   GUID=bb4fff9a-98b5-44d1-9fde-34d92700a8e9   Notes="Dead Only; Strength"
   ComboName=DCON2   ComboType="Linear Add"   AutoDesign=Yes   CaseName=DEAD   ScaleFactor=1.25   SteelDesign=None   ConcDesign=Strength   AlumDesign=None   ColdDesign=None   GUID=505bcda7-6fac-4dd0-b03e-c591d1ffc6ce   Notes="Dead + Live; Strength"
   ComboName=DCON2   CaseName=LL   ScaleFactor=1.5
 
TABLE:  "CONNECTIVITY - AREA"
   Area=229790   Joint1=672584   Joint2=672545   Joint3=672518   Joint4=672517   GUID=193eeaa2-0dcc-428b-ac9b-68e7efcae7f8
   Area=229791   Joint1=672517   Joint2=672518   Joint3=672520   Joint4=672519   GUID=5f1bcb76-63bb-4aea-8862-02382ea17096
   Area=229792   Joint1=672519   Joint2=672520   Joint3=672522   Joint4=672521   GUID=a5891304-76df-43e9-bb9a-d0a4d2162f66
   Area=229793   Joint1=672521   Joint2=672522   Joint3=672524   Joint4=672523   GUID=43f406b5-1871-496a-b1ac-b7fcc6c3c338
   Area=229794   Joint1=672523   Joint2=672524   Joint3=672526   Joint4=672525   GUID=9281740d-038c-4ef4-a7e9-4efda25dd289
   Area=229795   Joint1=672525   Joint2=672526   Joint3=672528   Joint4=672527   GUID=dd294fa2-ffda-471b-9fcd-51488095f60b
   Area=229796   Joint1=672527   Joint2=672528   Joint3=672530   Joint4=672529   GUID=1bb54e80-fb90-421f-ba28-4928ae8066cd
   Area=229797   Joint1=672529   Joint2=672530   Joint3=672547   Joint4=672585   GUID=c6bd5060-5871-4904-b42e-b179f917a92f
   Area=229798   Joint1=672545   Joint2=672546   Joint3=672531   Joint4=672518   GUID=99076214-4535-42ee-8854-3763442f1258
   Area=229799   Joint1=672518   Joint2=672531   Joint3=672532   Joint4=672520   GUID=c02669c0-392e-4677-9af5-fd33e7bb4f91
   Area=229800   Joint1=672520   Joint2=672532   Joint3=672533   Joint4=672522   GUID=486c734f-f802-4df1-8e39-b3149866d00f
   Area=229801   Joint1=672522   Joint2=672533   Joint3=672534   Joint4=672524   GUID=5cc45d3c-5dd1-4b48-93c4-de64fbaa7ada
   Area=229802   Joint1=672524   Joint2=672534   Joint3=672535   Joint4=672526   GUID=35f15975-857f-43d8-a1cd-cd743382b68f
   Area=229803   Joint1=672526   Joint2=672535   Joint3=672536   Joint4=672528   GUID=83aab7b2-482c-48ac-b2c9-50b372e7b111
   Area=229804   Joint1=672528   Joint2=672536   Joint3=672537   Joint4=672530   GUID=ea94aced-2874-473c-98ed-5c59296ff414
   Area=229805   Joint1=672530   Joint2=672537   Joint3=672548   Joint4=672547   GUID=def49f6d-0599-47b9-be61-03cbab636a99
   Area=229806   Joint1=672546   Joint2=672586   Joint3=672538   Joint4=672531   GUID=580323e8-fe44-4cf1-bb19-5afd7684ab5d
   Area=229807   Joint1=672531   Joint2=672538   Joint3=672539   Joint4=672532   GUID=6930dae3-a308-435a-b130-de6595067ad2
   Area=229808   Joint1=672532   Joint2=672539   Joint3=672540   Joint4=672533   GUID=33e53f1b-4fef-4377-8098-7c9a96b602bc
   Area=229809   Joint1=672533   Joint2=672540   Joint3=672541   Joint4=672534   GUID=c7a2fd76-4142-4859-959d-4553f1cb76c2
   Area=229810   Joint1=672534   Joint2=672541   Joint3=672542   Joint4=672535   GUID=51da5332-4036-485a-b7c9-e50eb28ed61b
   Area=229811   Joint1=672535   Joint2=672542   Joint3=672543   Joint4=672536   GUID=c5f4847a-c17e-444f-83e5-a04b56a6fc49
   Area=229812   Joint1=672536   Joint2=672543   Joint3=672544   Joint4=672537   GUID=12233244-8b72-4b2a-b632-3438f6c72b01
   Area=229813   Joint1=672537   Joint2=672544   Joint3=672587   Joint4=672548   GUID=9e5a01f8-48ad-444a-b3ed-16dc5fcf36fc
 
TABLE:  "CONNECTIVITY - FRAME"
   Frame=757141   JointI=672517   JointJ=672518   IsCurved=No   GUID=d9c0b2b2-f615-4712-9b87-b92efbc88053
   Frame=757142   JointI=672519   JointJ=672520   IsCurved=No   GUID=78e98881-8394-4248-b791-919fbc75bf8e
   Frame=757143   JointI=672521   JointJ=672522   IsCurved=No   GUID=83467e85-d796-4fdc-9575-856caf0ec73b
   Frame=757144   JointI=672523   JointJ=672524   IsCurved=No   GUID=45b320a1-04c3-4ecd-a256-d862ce6f6163
   Frame=757145   JointI=672525   JointJ=672526   IsCurved=No   GUID=8195dbc3-dbc9-4105-b6ca-66f77b32fde7
   Frame=757146   JointI=672527   JointJ=672528   IsCurved=No   GUID=1461f52f-4b50-40bf-996a-c5e0c620e1f7
   Frame=757147   JointI=672529   JointJ=672530   IsCurved=No   GUID=002e4073-8854-4a0a-b1a1-919fbab489d0
   Frame=757148   JointI=672518   JointJ=672531   IsCurved=No   GUID=d85dd654-5d10-4e9b-bf5c-15b2f643dce2
   Frame=757149   JointI=672520   JointJ=672532   IsCurved=No   GUID=1fc4d3b3-026e-4c1a-9127-e28c8505a8af
   Frame=757150   JointI=672522   JointJ=672533   IsCurved=No   GUID=34ea7d3c-fcd9-49f9-bdc3-5b1996b41e3d
   Frame=757151   JointI=672524   JointJ=672534   IsCurved=No   GUID=cde01610-4642-4811-80af-174d0d3d994f
   Frame=757152   JointI=672526   JointJ=672535   IsCurved=No   GUID=13c187cd-0f4f-40b2-b0df-fcfd52078df9
   Frame=757153   JointI=672528   JointJ=672536   IsCurved=No   GUID=98b0ef39-6009-4165-a161-315773d19a34
   Frame=757154   JointI=672530   JointJ=672537   IsCurved=No   GUID=f213f4c1-24ba-4e10-8d94-3aa2f0b64406
   Frame=757155   JointI=672531   JointJ=672538   IsCurved=No   GUID=c94ac9f6-a6d0-4cfc-a127-62e270f939dd
   Frame=757156   JointI=672532   JointJ=672539   IsCurved=No   GUID=fabe4107-ef8f-4265-9c6d-39ea2230d874
   Frame=757157   JointI=672533   JointJ=672540   IsCurved=No   GUID=d7d516c9-6408-4fff-97b5-45cf041556ba
   Frame=757158   JointI=672534   JointJ=672541   IsCurved=No   GUID=eb99c92d-2c4e-4598-beb1-26c908e326db
   Frame=757159   JointI=672535   JointJ=672542   IsCurved=No   GUID=ea2e35d9-ffb9-487f-97ca-570b503598d2
   Frame=757160   JointI=672536   JointJ=672543   IsCurved=No   GUID=eff2aa8d-8d37-4ca1-be2a-fb166f409bf8
   Frame=757161   JointI=672537   JointJ=672544   IsCurved=No   GUID=e6d3f8bd-14b7-468d-8822-e2156a313058
   Frame=757162   JointI=672545   JointJ=672518   IsCurved=No   GUID=a9e190c3-7362-4de0-9e36-e9ab95721826
   Frame=757163   JointI=672546   JointJ=672531   IsCurved=No   GUID=47ce16e2-28fc-4224-83de-13e8398d5187
   Frame=757164   JointI=672518   JointJ=672520   IsCurved=No   GUID=734d5fc6-563a-46b4-a91c-211c51812265
   Frame=757165   JointI=672531   JointJ=672532   IsCurved=No   GUID=ebc025ff-0859-48ec-9d32-9115ee28a62d
   Frame=757166   JointI=672520   JointJ=672522   IsCurved=No   GUID=6adaec0d-33bb-4727-96ce-e93960ec0ded
   Frame=757167   JointI=672532   JointJ=672533   IsCurved=No   GUID=1df5a0b4-a629-4922-9d29-e5d2cce7d279
   Frame=757168   JointI=672522   JointJ=672524   IsCurved=No   GUID=2c70f111-81fd-4763-a2a3-ac4b839357ee
   Frame=757169   JointI=672533   JointJ=672534   IsCurved=No   GUID=bc86ef82-8142-490d-be7c-58c401fa79e1
   Frame=757170   JointI=672524   JointJ=672526   IsCurved=No   GUID=0e33bfbc-849d-4162-9f63-b17cfe9162b6
   Frame=757171   JointI=672534   JointJ=672535   IsCurved=No   GUID=9faad90b-e968-4f97-8271-9e7eee45af1f
   Frame=757172   JointI=672526   JointJ=672528   IsCurved=No   GUID=3410ec33-600d-42c4-8b7c-492deb330075
   Frame=757173   JointI=672535   JointJ=672536   IsCurved=No   GUID=fc9201dc-a0ff-4580-b5d2-9497fe0ed06d
   Frame=757174   JointI=672528   JointJ=672530   IsCurved=No   GUID=fb1bef14-0098-4e92-9124-665cc27cb304
   Frame=757175   JointI=672536   JointJ=672537   IsCurved=No   GUID=cc5639a2-0311-48c3-ae78-70f0f5770856
   Frame=757176   JointI=672530   JointJ=672547   IsCurved=No   GUID=9ad739d9-0309-42fe-8c87-dff4bf5c4936
   Frame=757177   JointI=672537   JointJ=672548   IsCurved=No   GUID=568d0a7a-c170-48a0-8877-51b0e91d0046
   Frame=757178   JointI=672518   JointJ=672549   IsCurved=No   GUID=8d275965-a5b3-4849-bf88-fad941393c14
   Frame=757179   JointI=672549   JointJ=672550   IsCurved=No   GUID=21560369-a09c-4550-9fc1-55fde71e730d
   Frame=757180   JointI=672550   JointJ=672551   IsCurved=No   GUID=dbf22378-ab98-4501-95af-7eb86c20a3e3
   Frame=757181   JointI=672520   JointJ=672552   IsCurved=No   GUID=e0f42875-fafb-4f18-a184-4747787683a1
   Frame=757182   JointI=672552   JointJ=672553   IsCurved=No   GUID=679e32f3-7b22-44dc-b4ca-fbfa7bc55731
   Frame=757183   JointI=672553   JointJ=672554   IsCurved=No   GUID=d15bb2d2-9a0f-44ac-952c-4cd6a0051b23
   Frame=757184   JointI=672522   JointJ=672555   IsCurved=No   GUID=5ac18701-9614-4be3-9945-af937d5e1e05
   Frame=757185   JointI=672555   JointJ=672556   IsCurved=No   GUID=9b820632-f071-40ee-851e-a76b9c864af9
   Frame=757186   JointI=672556   JointJ=672557   IsCurved=No   GUID=4ebf5110-0681-4634-a803-75088b2a6c88
   Frame=757187   JointI=672524   JointJ=672558   IsCurved=No   GUID=44adb352-94d6-475c-ba3d-a63d14e0f3ff
   Frame=757188   JointI=672558   JointJ=672559   IsCurved=No   GUID=12129b61-c0b1-4ad2-9fb2-3072833d7145
   Frame=757189   JointI=672559   JointJ=672560   IsCurved=No   GUID=e003ec2f-db9c-4747-8b1a-39d4ec24a926
   Frame=757190   JointI=672526   JointJ=672561   IsCurved=No   GUID=9ca9cafe-b8b3-4c68-92a4-fbdfedc7e75f
   Frame=757191   JointI=672561   JointJ=672562   IsCurved=No   GUID=ff5c61db-3766-4a7d-a83a-9b458f9f51d6
   Frame=757192   JointI=672562   JointJ=672563   IsCurved=No   GUID=d42d7cb3-a5c0-4f53-9f2e-14d445895ad0
   Frame=757193   JointI=672528   JointJ=672564   IsCurved=No   GUID=2ea65f83-a823-4e2e-8810-5de0c65b6e23
   Frame=757194   JointI=672564   JointJ=672565   IsCurved=No   GUID=0f4057fe-520f-418a-af3e-bec503470e10
   Frame=757195   JointI=672565   JointJ=672566   IsCurved=No   GUID=939ebdac-0118-4e02-9f99-7bda8e4b91cb
   Frame=757196   JointI=672530   JointJ=672567   IsCurved=No   GUID=899090ef-7228-4805-be07-89cd5b48f34f
   Frame=757197   JointI=672567   JointJ=672568   IsCurved=No   GUID=cea8eb46-275e-40e7-8753-4f32efdd6eb8
   Frame=757198   JointI=672568   JointJ=672569   IsCurved=No   GUID=4c82bc89-70d0-4c79-ac28-9f544fbc4cbb
   Frame=757199   JointI=672531   JointJ=672570   IsCurved=No   GUID=e70a0a96-0404-4566-af47-afcbd99766dd
   Frame=757200   JointI=672570   JointJ=672571   IsCurved=No   GUID=8c0ff523-c360-4a7e-8839-dea8e8524a9d
   Frame=757201   JointI=672532   JointJ=672572   IsCurved=No   GUID=42a3d65b-6bd1-454e-8827-6511a9148c57
   Frame=757202   JointI=672572   JointJ=672573   IsCurved=No   GUID=cf90152f-40cf-4a8e-9712-c68cc428f24e
   Frame=757203   JointI=672533   JointJ=672574   IsCurved=No   GUID=413de227-d9b7-45f7-910a-6dd5f59615cb
   Frame=757204   JointI=672574   JointJ=672575   IsCurved=No   GUID=9360b81e-251f-43b0-8e7b-212bc7de4b19
   Frame=757205   JointI=672534   JointJ=672576   IsCurved=No   GUID=b9eb53f9-acd2-4533-bf8e-4dec1e45b0ed
   Frame=757206   JointI=672576   JointJ=672577   IsCurved=No   GUID=87206fbb-2497-4b2c-a575-efcd4f2a35c1
   Frame=757207   JointI=672535   JointJ=672578   IsCurved=No   GUID=f0a94590-2f60-4bfc-b16a-accee9f5ea69
   Frame=757208   JointI=672578   JointJ=672579   IsCurved=No   GUID=34c9439f-5b62-4963-8124-d9b67abefc6b
   Frame=757209   JointI=672536   JointJ=672580   IsCurved=No   GUID=eb7f1834-9abc-434e-a326-85fef15bb68b
   Frame=757210   JointI=672580   JointJ=672581   IsCurved=No   GUID=3099efa6-6771-4bbf-aaa5-20c551deed22
   Frame=757211   JointI=672537   JointJ=672582   IsCurved=No   GUID=34a88070-aaa3-4854-822a-2ba921af36b8
   Frame=757212   JointI=672582   JointJ=672583   IsCurved=No   GUID=bde3f115-b9f9-47e0-ba36-4a17b3dfe8b3
   Frame=757213   JointI=672549   JointJ=672552   IsCurved=No   GUID=b80ad5bd-98f3-42ad-92cd-fe94067d0964
   Frame=757214   JointI=672552   JointJ=672555   IsCurved=No   GUID=a3b045ee-af55-494f-aa5f-38ff5eba3361
   Frame=757215   JointI=672555   JointJ=672558   IsCurved=No   GUID=a146adb3-00a2-4e55-9295-f9bf9f2b363e
   Frame=757216   JointI=672558   JointJ=672561   IsCurved=No   GUID=0897d959-0089-4f2c-a545-05a5fcb5b30d
   Frame=757217   JointI=672561   JointJ=672564   IsCurved=No   GUID=f4030e1b-448f-4422-bbce-1bec95f87b60
   Frame=757218   JointI=672564   JointJ=672567   IsCurved=No   GUID=a882130a-c72e-4ad4-8bb3-77ac3aa0a376
 
TABLE:  "COORDINATE SYSTEMS"
   Name=GLOBAL   Type=Cartesian   X=0   Y=0   Z=0   AboutZ=0   AboutY=0   AboutX=0
 
TABLE:  "DATABASE DOCUMENTATION"
 
TABLE:  "DATABASE FORMAT TYPES"
   UnitsCurr=Yes   OverrideE=No
 
TABLE:  "FRAME AUTO MESH ASSIGNMENTS"
   Frame=757141   AutoMesh=Yes   AtJoints=Yes   AtFrames=No   NumSegments=0   MaxLength=0   MaxDegrees=0
   Frame=757142   AutoMesh=Yes   AtJoints=Yes   AtFrames=No   NumSegments=0   MaxLength=0   MaxDegrees=0
   Frame=757143   AutoMesh=Yes   AtJoints=Yes   AtFrames=No   NumSegments=0   MaxLength=0   MaxDegrees=0
   Frame=757144   AutoMesh=Yes   AtJoints=Yes   AtFrames=No   NumSegments=0   MaxLength=0   MaxDegrees=0
   Frame=757145   AutoMesh=Yes   AtJoints=Yes   AtFrames=No   NumSegments=0   MaxLength=0   MaxDegrees=0
   Frame=757146   AutoMesh=Yes   AtJoints=Yes   AtFrames=No   NumSegments=0   MaxLength=0   MaxDegrees=0
   Frame=757147   AutoMesh=Yes   AtJoints=Yes   AtFrames=No   NumSegments=0   MaxLength=0   MaxDegrees=0
   Frame=757148   AutoMesh=Yes   AtJoints=Yes   AtFrames=No   NumSegments=0   MaxLength=0   MaxDegrees=0
   Frame=757149   AutoMesh=Yes   AtJoints=Yes   AtFrames=No   NumSegments=0   MaxLength=0   MaxDegrees=0
   Frame=757150   AutoMesh=Yes   AtJoints=Yes   AtFrames=No   NumSegments=0   MaxLength=0   MaxDegrees=0
   Frame=757151   AutoMesh=Yes   AtJoints=Yes   AtFrames=No   NumSegments=0   MaxLength=0   MaxDegrees=0
   Frame=757152   AutoMesh=Yes   AtJoints=Yes   AtFrames=No   NumSegments=0   MaxLength=0   MaxDegrees=0
   Frame=757153   AutoMesh=Yes   AtJoints=Yes   AtFrames=No   NumSegments=0   MaxLength=0   MaxDegrees=0
   Frame=757154   AutoMesh=Yes   AtJoints=Yes   AtFrames=No   NumSegments=0   MaxLength=0   MaxDegrees=0
   Frame=757155   AutoMesh=Yes   AtJoints=Yes   AtFrames=No   NumSegments=0   MaxLength=0   MaxDegrees=0
   Frame=757156   AutoMesh=Yes   AtJoints=Yes   AtFrames=No   NumSegments=0   MaxLength=0   MaxDegrees=0
   Frame=757157   AutoMesh=Yes   AtJoints=Yes   AtFrames=No   NumSegments=0   MaxLength=0   MaxDegrees=0
   Frame=757158   AutoMesh=Yes   AtJoints=Yes   AtFrames=No   NumSegments=0   MaxLength=0   MaxDegrees=0
   Frame=757159   AutoMesh=Yes   AtJoints=Yes   AtFrames=No   NumSegments=0   MaxLength=0   MaxDegrees=0
   Frame=757160   AutoMesh=Yes   AtJoints=Yes   AtFrames=No   NumSegments=0   MaxLength=0   MaxDegrees=0
# ... 58 like lines cut
 
TABLE:  "FRAME DESIGN PROCEDURES"
   Frame=757141   DesignProc="From Material"
   Frame=757142   DesignProc="From Material"
   Frame=757143   DesignProc="From Material"
   Frame=757144   DesignProc="From Material"
   Frame=757145   DesignProc="From Material"
   Frame=757146   DesignProc="From Material"
   Frame=757147   DesignProc="From Material"
   Frame=757148   DesignProc="From Material"
   Frame=757149   DesignProc="From Material"
   Frame=757150   DesignProc="From Material"
   Frame=757151   DesignProc="From Material"
   Frame=757152   DesignProc="From Material"
   Frame=757153   DesignProc="From Material"
   Frame=757154   DesignProc="From Material"
   Frame=757155   DesignProc="From Material"
   Frame=757156   DesignProc="From Material"
   Frame=757157   DesignProc="From Material"
   Frame=757158   DesignProc="From Material"
   Frame=757159   DesignProc="From Material"
   Frame=757160   DesignProc="From Material"
# ... 18 like lines cut
   Frame=757179   DesignProc="No Design"
   Frame=757180   DesignProc="No Design"
   Frame=757181   DesignProc="From Material"
   Frame=757182   DesignProc="No Design"
   Frame=757183   DesignProc="No Design"
   Frame=757184   DesignProc="From Material"
   Frame=757185   DesignProc="No Design"
   Frame=757186   DesignProc="No Design"
   Frame=757187   DesignProc="From Material"
   Frame=757188   DesignProc="No Design"
   Frame=757189   DesignProc="No Design"
   Frame=757190   DesignProc="From Material"
   Frame=757191   DesignProc="No Design"
   Frame=757192   DesignProc="No Design"
   Frame=757193   DesignProc="From Material"
   Frame=757194   DesignProc="No Design"
   Frame=757195   DesignProc="No Design"
   Frame=757196   DesignProc="From Material"
   Frame=757197   DesignProc="No Design"
   Frame=757198   DesignProc="No Design"
   Frame=757199   DesignProc="No Design"
   Frame=757200   DesignProc="No Design"
   Frame=757201   DesignProc="No Design"
   Frame=757202   DesignProc="No Design"
   Frame=757203   DesignProc="No Design"
   Frame=757204   DesignProc="No Design"
   Frame=757205   DesignProc="No Design"
   Frame=757206   DesignProc="No Design"
   Frame=757207   DesignProc="No Design"
   Frame=757208   DesignProc="No Design"
   Frame=757209   DesignProc="No Design"
   Frame=757210   DesignProc="No Design"
   Frame=757211   DesignProc="No Design"
   Frame=757212   DesignProc="No Design"
   Frame=757213   DesignProc="From Material"
   Frame=757214   DesignProc="From Material"
   Frame=757215   DesignProc="From Material"
   Frame=757216   DesignProc="From Material"
   Frame=757217   DesignProc="From Material"
   Frame=757218   DesignProc="From Material"
 
TABLE:  "FRAME LOAD TRANSFER OPTIONS"
   Frame=757141   Transfer=Yes
   Frame=757142   Transfer=Yes
   Frame=757143   Transfer=Yes
   Frame=757144   Transfer=Yes
   Frame=757145   Transfer=Yes
   Frame=757146   Transfer=Yes
   Frame=757147   Transfer=Yes
   Frame=757148   Transfer=Yes
   Frame=757149   Transfer=Yes
   Frame=757150   Transfer=Yes
   Frame=757151   Transfer=Yes
   Frame=757152   Transfer=Yes
   Frame=757153   Transfer=Yes
   Frame=757154   Transfer=Yes
   Frame=757155   Transfer=Yes
   Frame=757156   Transfer=Yes
   Frame=757157   Transfer=Yes
   Frame=757158   Transfer=Yes
   Frame=757159   Transfer=Yes
   Frame=757160   Transfer=Yes
# ... 58 like lines cut
 
TABLE:  "FRAME LOCAL AXES ASSIGNMENTS 1 - TYPICAL"
   Frame=757178   Angle=90
   Frame=757181   Angle=90
   Frame=757184   Angle=90
   Frame=757187   Angle=90
   Frame=757190   Angle=90
   Frame=757193   Angle=90
   Frame=757196   Angle=90
 
TABLE:  "FRAME OUTPUT STATION ASSIGNMENTS"
   Frame=757141   StationType=MaxStaSpcg   MaxStaSpcg=0.5   AddAtElmInt=Yes   AddAtPtLoad=Yes
   Frame=757142   StationType=MaxStaSpcg   MaxStaSpcg=0.5   AddAtElmInt=Yes   AddAtPtLoad=Yes
   Frame=757143   StationType=MaxStaSpcg   MaxStaSpcg=0.5   AddAtElmInt=Yes   AddAtPtLoad=Yes
   Frame=757144   StationType=MaxStaSpcg   MaxStaSpcg=0.5   AddAtElmInt=Yes   AddAtPtLoad=Yes
   Frame=757145   StationType=MaxStaSpcg   MaxStaSpcg=0.5   AddAtElmInt=Yes   AddAtPtLoad=Yes
   Frame=757146   StationType=MaxStaSpcg   MaxStaSpcg=0.5   AddAtElmInt=Yes   AddAtPtLoad=Yes
   Frame=757147   StationType=MaxStaSpcg   MaxStaSpcg=0.5   AddAtElmInt=Yes   AddAtPtLoad=Yes
   Frame=757148   StationType=MaxStaSpcg   MaxStaSpcg=0.5   AddAtElmInt=Yes   AddAtPtLoad=Yes
   Frame=757149   StationType=MaxStaSpcg   MaxStaSpcg=0.5   AddAtElmInt=Yes   AddAtPtLoad=Yes
   Frame=757150   StationType=MaxStaSpcg   MaxStaSpcg=0.5   AddAtElmInt=Yes   AddAtPtLoad=Yes
   Frame=757151   StationType=MaxStaSpcg   MaxStaSpcg=0.5   AddAtElmInt=Yes   AddAtPtLoad=Yes
   Frame=757152   StationType=MaxStaSpcg   MaxStaSpcg=0.5   AddAtElmInt=Yes   AddAtPtLoad=Yes
   Frame=757153   StationType=MaxStaSpcg   MaxStaSpcg=0.5   AddAtElmInt=Yes   AddAtPtLoad=Yes
   Frame=757154   StationType=MaxStaSpcg   MaxStaSpcg=0.5   AddAtElmInt=Yes   AddAtPtLoad=Yes
   Frame=757155   StationType=MaxStaSpcg   MaxStaSpcg=0.5   AddAtElmInt=Yes   AddAtPtLoad=Yes
   Frame=757156   StationType=MaxStaSpcg   MaxStaSpcg=0.5   AddAtElmInt=Yes   AddAtPtLoad=Yes
   Frame=757157   StationType=MaxStaSpcg   MaxStaSpcg=0.5   AddAtElmInt=Yes   AddAtPtLoad=Yes
   Frame=757158   StationType=MaxStaSpcg   MaxStaSpcg=0.5   AddAtElmInt=Yes   AddAtPtLoad=Yes
   Frame=757159   StationType=MaxStaSpcg   MaxStaSpcg=0.5   AddAtElmInt=Yes   AddAtPtLoad=Yes
   Frame=757160   StationType=MaxStaSpcg   MaxStaSpcg=0.5   AddAtElmInt=Yes   AddAtPtLoad=Yes
# ... 17 like lines cut
   Frame=757178   StationType=MinNumSta   MinNumSta=3   AddAtElmInt=Yes   AddAtPtLoad=Yes
   Frame=757179   StationType=MinNumSta   MinNumSta=3   AddAtElmInt=Yes   AddAtPtLoad=Yes
   Frame=757180   StationType=MinNumSta   MinNumSta=3   AddAtElmInt=Yes   AddAtPtLoad=Yes
   Frame=757181   StationType=MinNumSta   MinNumSta=3   AddAtElmInt=Yes   AddAtPtLoad=Yes
   Frame=757182   StationType=MinNumSta   MinNumSta=3   AddAtElmInt=Yes   AddAtPtLoad=Yes
   Frame=757183   StationType=MinNumSta   MinNumSta=3   AddAtElmInt=Yes   AddAtPtLoad=Yes
   Frame=757184   StationType=MinNumSta   MinNumSta=3   AddAtElmInt=Yes   AddAtPtLoad=Yes
   Frame=757185   StationType=MinNumSta   MinNumSta=3   AddAtElmInt=Yes   AddAtPtLoad=Yes
   Frame=757186   StationType=MinNumSta   MinNumSta=3   AddAtElmInt=Yes   AddAtPtLoad=Yes
   Frame=757187   StationType=MinNumSta   MinNumSta=3   AddAtElmInt=Yes   AddAtPtLoad=Yes
   Frame=757188   StationType=MinNumSta   MinNumSta=3   AddAtElmInt=Yes   AddAtPtLoad=Yes
   Frame=757189   StationType=MinNumSta   MinNumSta=3   AddAtElmInt=Yes   AddAtPtLoad=Yes
   Frame=757190   StationType=MinNumSta   MinNumSta=3   AddAtElmInt=Yes   AddAtPtLoad=Yes
   Frame=757191   StationType=MinNumSta   MinNumSta=3   AddAtElmInt=Yes   AddAtPtLoad=Yes
   Frame=757192   StationType=MinNumSta   MinNumSta=3   AddAtElmInt=Yes   AddAtPtLoad=Yes
   Frame=757193   StationType=MinNumSta   MinNumSta=3   AddAtElmInt=Yes   AddAtPtLoad=Yes
   Frame=757194   StationType=MinNumSta   MinNumSta=3   AddAtElmInt=Yes   AddAtPtLoad=Yes
   Frame=757195   StationType=MinNumSta   MinNumSta=3   AddAtElmInt=Yes   AddAtPtLoad=Yes
   Frame=757196   StationType=MinNumSta   MinNumSta=3   AddAtElmInt=Yes   AddAtPtLoad=Yes
   Frame=757197   StationType=MinNumSta   MinNumSta=3   AddAtElmInt=Yes   AddAtPtLoad=Yes
# ... 15 like lines cut
   Frame=757213   StationType=MaxStaSpcg   MaxStaSpcg=0.5   AddAtElmInt=Yes   AddAtPtLoad=Yes
   Frame=757214   StationType=MaxStaSpcg   MaxStaSpcg=0.5   AddAtElmInt=Yes   AddAtPtLoad=Yes
   Frame=757215   StationType=MaxStaSpcg   MaxStaSpcg=0.5   AddAtElmInt=Yes   AddAtPtLoad=Yes
   Frame=757216   StationType=MaxStaSpcg   MaxStaSpcg=0.5   AddAtElmInt=Yes   AddAtPtLoad=Yes
   Frame=757217   StationType=MaxStaSpcg   MaxStaSpcg=0.5   AddAtElmInt=Yes   AddAtPtLoad=Yes
   Frame=757218   StationType=MaxStaSpcg   MaxStaSpcg=0.5   AddAtElmInt=Yes   AddAtPtLoad=Yes
 
TABLE:  "FRAME SECTION ASSIGNMENTS"
   Frame=757141   AutoSelect=N.A.   AnalSect=TB   MatProp=Default
   Frame=757142   AutoSelect=N.A.   AnalSect=TB   MatProp=Default
   Frame=757143   AutoSelect=N.A.   AnalSect=TB   MatProp=Default
   Frame=757144   AutoSelect=N.A.   AnalSect=TB   MatProp=Default
   Frame=757145   AutoSelect=N.A.   AnalSect=TB   MatProp=Default
   Frame=757146   AutoSelect=N.A.   AnalSect=TB   MatProp=Default
   Frame=757147   AutoSelect=N.A.   AnalSect=TB   MatProp=Default
   Frame=757148   AutoSelect=N.A.   AnalSect=TB   MatProp=Default
   Frame=757149   AutoSelect=N.A.   AnalSect=TB   MatProp=Default
   Frame=757150   AutoSelect=N.A.   AnalSect=TB   MatProp=Default
   Frame=757151   AutoSelect=N.A.   AnalSect=TB   MatProp=Default
   Frame=757152   AutoSelect=N.A.   AnalSect=TB   MatProp=Default
   Frame=757153   AutoSelect=N.A.   AnalSect=TB   MatProp=Default
   Frame=757154   AutoSelect=N.A.   AnalSect=TB   MatProp=Default
   Frame=757155   AutoSelect=N.A.   AnalSect=TB   MatProp=Default
   Frame=757156   AutoSelect=N.A.   AnalSect=TB   MatProp=Default
   Frame=757157   AutoSelect=N.A.   AnalSect=TB   MatProp=Default
   Frame=757158   AutoSelect=N.A.   AnalSect=TB   MatProp=Default
   Frame=757159   AutoSelect=N.A.   AnalSect=TB   MatProp=Default
   Frame=757160   AutoSelect=N.A.   AnalSect=TB   MatProp=Default
   Frame=757161   AutoSelect=N.A.   AnalSect=TB   MatProp=Default
   Frame=757162   AutoSelect=N.A.   AnalSect=LB   MatProp=Default
   Frame=757163   AutoSelect=N.A.   AnalSect=LB   MatProp=Default
   Frame=757164   AutoSelect=N.A.   AnalSect=LB   MatProp=Default
   Frame=757165   AutoSelect=N.A.   AnalSect=LB   MatProp=Default
   Frame=757166   AutoSelect=N.A.   AnalSect=LB   MatProp=Default
   Frame=757167   AutoSelect=N.A.   AnalSect=LB   MatProp=Default
   Frame=757168   AutoSelect=N.A.   AnalSect=LB   MatProp=Default
   Frame=757169   AutoSelect=N.A.   AnalSect=LB   MatProp=Default
   Frame=757170   AutoSelect=N.A.   AnalSect=LB   MatProp=Default
   Frame=757171   AutoSelect=N.A.   AnalSect=LB   MatProp=Default
   Frame=757172   AutoSelect=N.A.   AnalSect=LB   MatProp=Default
   Frame=757173   AutoSelect=N.A.   AnalSect=LB   MatProp=Default
   Frame=757174   AutoSelect=N.A.   AnalSect=LB   MatProp=Default
   Frame=757175   AutoSelect=N.A.   AnalSect=LB   MatProp=Default
   Frame=757176   AutoSelect=N.A.   AnalSect=LB   MatProp=Default
   Frame=757177   AutoSelect=N.A.   AnalSect=LB   MatProp=Default
   Frame=757178   AutoSelect=N.A.   AnalSect=EB   MatProp=Default
   Frame=757179   AutoSelect=N.A.   AnalSect=Piles   MatProp=Default
   Frame=757180   AutoSelect=N.A.   AnalSect=Piles   MatProp=Default
   Frame=757181   AutoSelect=N.A.   AnalSect=EB   MatProp=Default
   Frame=757182   AutoSelect=N.A.   AnalSect=Piles   MatProp=Default
   Frame=757183   AutoSelect=N.A.   AnalSect=Piles   MatProp=Default
   Frame=757184   AutoSelect=N.A.   AnalSect=EB   MatProp=Default
   Frame=757185   AutoSelect=N.A.   AnalSect=Piles   MatProp=Default
   Frame=757186   AutoSelect=N.A.   AnalSect=Piles   MatProp=Default
   Frame=757187   AutoSelect=N.A.   AnalSect=EB   MatProp=Default
   Frame=757188   AutoSelect=N.A.   AnalSect=Piles   MatProp=Default
   Frame=757189   AutoSelect=N.A.   AnalSect=Piles   MatProp=Default
   Frame=757190   AutoSelect=N.A.   AnalSect=EB   MatProp=Default
   Frame=757191   AutoSelect=N.A.   AnalSect=Piles   MatProp=Default
   Frame=757192   AutoSelect=N.A.   AnalSect=Piles   MatProp=Default
   Frame=757193   AutoSelect=N.A.   AnalSect=EB   MatProp=Default
   Frame=757194   AutoSelect=N.A.   AnalSect=Piles   MatProp=Default
   Frame=757195   AutoSelect=N.A.   AnalSect=Piles   MatProp=Default
   Frame=757196   AutoSelect=N.A.   AnalSect=EB   MatProp=Default
   Frame=757197   AutoSelect=N.A.   AnalSect=Piles   MatProp=Default
   Frame=757198   AutoSelect=N.A.   AnalSect=Piles   MatProp=Default
   Frame=757199   AutoSelect=N.A.   AnalSect=Piles   MatProp=Default
   Frame=757200   AutoSelect=N.A.   AnalSect=Piles   MatProp=Default
   Frame=757201   AutoSelect=N.A.   AnalSect=Piles   MatProp=Default
   Frame=757202   AutoSelect=N.A.   AnalSect=Piles   MatProp=Default
   Frame=757203   AutoSelect=N.A.   AnalSect=Piles   MatProp=Default
   Frame=757204   AutoSelect=N.A.   AnalSect=Piles   MatProp=Default
   Frame=757205   AutoSelect=N.A.   AnalSect=Piles   MatProp=Default
   Frame=757206   AutoSelect=N.A.   AnalSect=Piles   MatProp=Default
   Frame=757207   AutoSelect=N.A.   AnalSect=Piles   MatProp=Default
   Frame=757208   AutoSelect=N.A.   AnalSect=Piles   MatProp=Default
   Frame=757209   AutoSelect=N.A.   AnalSect=Piles   MatProp=Default
   Frame=757210   AutoSelect=N.A.   AnalSect=Piles   MatProp=Default
   Frame=757211   AutoSelect=N.A.   AnalSect=Piles   MatProp=Default
   Frame=757212   AutoSelect=N.A.   AnalSect=Piles   MatProp=Default
   Frame=757213   AutoSelect=N.A.   AnalSect=EB-1   MatProp=Default
   Frame=757214   AutoSelect=N.A.   AnalSect=EB-1   MatProp=Default
   Frame=757215   AutoSelect=N.A.   AnalSect=EB-1   MatProp=Default
   Frame=757216   AutoSelect=N.A.   AnalSect=EB-1   MatProp=Default
   Frame=757217   AutoSelect=N.A.   AnalSect=EB-1   MatProp=Default
   Frame=757218   AutoSelect=N.A.   AnalSect=EB-1   MatProp=Default
 
TABLE:  "FRAME SECTION PROPERTIES 01 - GENERAL"
   SectionName=EB   Material=BTCT   Shape=Rectangular   t3=1.2   t2=0.5   Area=0.6   TorsConst=0.0369079665195795   I33=0.072   I22=0.0125   I23=0   AS2=0.5   AS3=0.5   S33Top=0.12   S33Bot=0.12   S22Left=0.05   S22Right=0.05   Z33=0.18 _
        Z22=0.075   R33=0.346410161513775   R22=0.144337567297406   CGOffset3=0   CGOffset2=0   EccV2=0   EccV3=0   Cw=0   Color=Magenta   FromFile=No   AMod=1   A2Mod=1   A3Mod=1   JMod=1   I2Mod=1   I3Mod=1   MMod=1   WMod=1
   SectionName=EB-1   Material=BTCT   Shape=Rectangular   t3=0.5   t2=0.5   Area=0.25   TorsConst=0.00880208333333333   I33=0.00520833333333333   I22=0.00520833333333333   I23=0   AS2=0.208333333333333   AS3=0.208333333333333 _
        S33Top=0.0208333333333333   S33Bot=0.0208333333333333   S22Left=0.0208333333333333   S22Right=0.0208333333333333   Z33=0.03125   Z22=0.03125   R33=0.144337567297406   R22=0.144337567297406   CGOffset3=0   CGOffset2=0   EccV2=0 _
        EccV3=0   Cw=0   Color=Yellow   FromFile=No   AMod=1   A2Mod=1   A3Mod=1   JMod=1   I2Mod=1   I3Mod=1   MMod=1   WMod=1
   SectionName=LB   Material=BTCT   Shape=Rectangular   t3=0.5   t2=0.5   Area=0.25   TorsConst=0.00880208333333333   I33=0.00520833333333333   I22=0.00520833333333333   I23=0   AS2=0.208333333333333   AS3=0.208333333333333 _
        S33Top=0.0208333333333333   S33Bot=0.0208333333333333   S22Left=0.0208333333333333   S22Right=0.0208333333333333   Z33=0.03125   Z22=0.03125   R33=0.144337567297406   R22=0.144337567297406   CGOffset3=0   CGOffset2=0   EccV2=0 _
        EccV3=0   Cw=0   Color=Red   FromFile=No   AMod=1   A2Mod=1   A3Mod=1   JMod=1   I2Mod=1   I3Mod=1   MMod=1   WMod=1
   SectionName=Piles   Material=BTCTCOC   Shape=Pipe   t3=0.3   tw=0.06   Area=0.045238934211693   TorsConst=0.000692155693438903   I33=0.000346077846719452   I22=0.000346077846719452   I23=0   AS2=0.0235427106611872 _
        AS3=0.0235427106611872   S33Top=0.00230718564479634   S33Bot=0.00230718564479634   S22Left=0.00230718564479634   S22Right=0.00230718564479634   Z33=0.003528   Z22=0.003528   R33=0.0874642784226795   R22=0.0874642784226795 _
        CGOffset3=0   CGOffset2=0   EccV2=0   EccV3=0   Cw=0   Color=Gray8Dark   FromFile=No   AMod=1   A2Mod=1   A3Mod=1   JMod=1   I2Mod=1   I3Mod=1   MMod=1   WMod=1
   SectionName=TB   Material=BTCT   Shape=Rectangular   t3=0.5   t2=0.5   Area=0.25   TorsConst=0.00880208333333333   I33=0.00520833333333333   I22=0.00520833333333333   I23=0   AS2=0.208333333333333   AS3=0.208333333333333 _
        S33Top=0.0208333333333333   S33Bot=0.0208333333333333   S22Left=0.0208333333333333   S22Right=0.0208333333333333   Z33=0.03125   Z22=0.03125   R33=0.144337567297406   R22=0.144337567297406   CGOffset3=0   CGOffset2=0   EccV2=0 _
        EccV3=0   Cw=0   Color=Cyan   FromFile=No   AMod=1   A2Mod=1   A3Mod=1   JMod=1   I2Mod=1   I3Mod=1   MMod=1   WMod=1
 
TABLE:  "FRAME SECTION PROPERTIES 02 - CONCRETE COLUMN"
   SectionName=EB   RebarMatL=A706   RebarMatC=A706   ReinfConfig=Rectangular   LatReinf=Ties   Cover=0.05   NumBars3Dir=2   NumBars2Dir=2   BarSizeL=12d   BarSizeC=10d   SpacingC=0.1   NumCBars2=2   NumCBars3=2   ReinfType=Design
   SectionName=EB-1   RebarMatL=A706   RebarMatC=A706   ReinfConfig=Rectangular   LatReinf=Ties   Cover=0.05   NumBars3Dir=2   NumBars2Dir=2   BarSizeL=12d   BarSizeC=10d   SpacingC=0.1   NumCBars2=2   NumCBars3=2   ReinfType=Design
   SectionName=LB   RebarMatL=A706   RebarMatC=A706   ReinfConfig=Rectangular   LatReinf=Ties   Cover=0.05   NumBars3Dir=2   NumBars2Dir=2   BarSizeL=12d   BarSizeC=10d   SpacingC=0.1   NumCBars2=2   NumCBars3=2   ReinfType=Design
   SectionName=TB   RebarMatL=A706   RebarMatC=A706   ReinfConfig=Rectangular   LatReinf=Ties   Cover=0.05   NumBars3Dir=2   NumBars2Dir=2   BarSizeL=12d   BarSizeC=10d   SpacingC=0.1   NumCBars2=2   NumCBars3=2   ReinfType=Design
 
TABLE:  "FRAME SECTION PROPERTIES 13 - TIME DEPENDENT"
   SectionName=EB   TypeSize=Auto   AutoSFSize=1
   SectionName=EB-1   TypeSize=Auto   AutoSFSize=1
   SectionName=LB   TypeSize=Auto   AutoSFSize=1
   SectionName=Piles   TypeSize=Auto   AutoSFSize=1
   SectionName=TB   TypeSize=Auto   AutoSFSize=1
 
TABLE:  "FUNCTION - PLOT FUNCTIONS"
   PlotFunc="Input Energy"   Type=Energy   Component=Input   Mode=All
 
TABLE:  "FUNCTION - POWER SPECTRAL DENSITY - USER"
   Name=UNIFPSD   Frequency=0   Value=1
   Name=UNIFPSD   Frequency=1   Value=1
 
TABLE:  "FUNCTION - RESPONSE SPECTRUM - USER"
   Name=UNIFRS   Period=0   Accel=1   FuncDamp=0.05
   Name=UNIFRS   Period=1   Accel=1
 
TABLE:  "FUNCTION - STEADY STATE - USER"
   Name=UNIFSS   Frequency=0   Value=1
   Name=UNIFSS   Frequency=1   Value=1
 
TABLE:  "FUNCTION - TIME HISTORY - USER"
   Name=RAMPTH   Time=0   Value=0
   Name=RAMPTH   Time=1   Value=1
   Name=RAMPTH   Time=4   Value=1
   Name=UNIFTH   Time=0   Value=1
   Name=UNIFTH   Time=1   Value=1
 
TABLE:  "GRID LINES"
   CoordSys=GLOBAL   AxisDir=X   GridID=A   XRYZCoord=-10   LineType=Primary   LineColor=Gray8Dark   Visible=Yes   BubbleLoc=End   AllVisible=Yes   BubbleSize=0.9375
   CoordSys=GLOBAL   AxisDir=X   GridID=B   XRYZCoord=-9   LineType=Primary   LineColor=Gray8Dark   Visible=Yes   BubbleLoc=End
   CoordSys=GLOBAL   AxisDir=X   GridID=C   XRYZCoord=-4.5   LineType=Primary   LineColor=Gray8Dark   Visible=Yes   BubbleLoc=End
   CoordSys=GLOBAL   AxisDir=X   GridID=D   XRYZCoord=0   LineType=Primary   LineColor=Gray8Dark   Visible=Yes   BubbleLoc=End
   CoordSys=GLOBAL   AxisDir=X   GridID=E   XRYZCoord=4.5   LineType=Primary   LineColor=Gray8Dark   Visible=Yes   BubbleLoc=End
   CoordSys=GLOBAL   AxisDir=X   GridID=F   XRYZCoord=9   LineType=Primary   LineColor=Gray8Dark   Visible=Yes   BubbleLoc=End
   CoordSys=GLOBAL   AxisDir=X   GridID=G   XRYZCoord=10   LineType=Primary   LineColor=Gray8Dark   Visible=Yes   BubbleLoc=End
   CoordSys=GLOBAL   AxisDir=Y   GridID=1   XRYZCoord=-5.2   LineType=Primary   LineColor=Gray8Dark   Visible=Yes   BubbleLoc=Start
   CoordSys=GLOBAL   AxisDir=Y   GridID=2   XRYZCoord=-4.2   LineType=Primary   LineColor=Gray8Dark   Visible=Yes   BubbleLoc=Start
   CoordSys=GLOBAL   AxisDir=Y   GridID=3   XRYZCoord=0   LineType=Primary   LineColor=Gray8Dark   Visible=Yes   BubbleLoc=Start
   CoordSys=GLOBAL   AxisDir=Y   GridID=4   XRYZCoord=4.2   LineType=Primary   LineColor=Gray8Dark   Visible=Yes   BubbleLoc=Start
   CoordSys=GLOBAL   AxisDir=Y   GridID=5   XRYZCoord=4.8   LineType=Primary   LineColor=Gray8Dark   Visible=Yes   BubbleLoc=Start
   CoordSys=GLOBAL   AxisDir=Z   GridID=Z1   XRYZCoord=0   LineType=Primary   LineColor=Gray8Dark   Visible=Yes   BubbleLoc=End
   CoordSys=GLOBAL   AxisDir=Z   GridID=Z2   XRYZCoord=13   LineType=Primary   LineColor=Gray8Dark   Visible=Yes   BubbleLoc=End
 
TABLE:  "GROUPS 1 - DEFINITIONS"
   GroupName=ALL   Selection=Yes   SectionCut=Yes   Steel=Yes   Concrete=Yes   Aluminum=Yes   ColdFormed=Yes   Stage=Yes   Bridge=Yes   AutoSeismic=No   AutoWind=No   SelDesSteel=No   SelDesAlum=No   SelDesCold=No   MassWeight=Yes   Color=Red
   GroupName=Pile   Selection=Yes   SectionCut=Yes   Steel=Yes   Concrete=Yes   Aluminum=Yes   ColdFormed=Yes   Stage=Yes   Bridge=Yes   AutoSeismic=No   AutoWind=No   SelDesSteel=No   SelDesAlum=No   SelDesCold=No   MassWeight=Yes   Color=Gray8Dark
   GroupName=DN   Selection=Yes   SectionCut=Yes   Steel=Yes   Concrete=Yes   Aluminum=Yes   ColdFormed=Yes   Stage=Yes   Bridge=Yes   AutoSeismic=No   AutoWind=No   SelDesSteel=No   SelDesAlum=No   SelDesCold=No   MassWeight=Yes   Color=Yellow
   GroupName=Pile_Toe   Selection=Yes   SectionCut=Yes   Steel=Yes   Concrete=Yes   Aluminum=Yes   ColdFormed=Yes   Stage=Yes   Bridge=Yes   AutoSeismic=No   AutoWind=No   SelDesSteel=No   SelDesAlum=No   SelDesCold=No   MassWeight=Yes   Color=Green
   GroupName=Pile_Bend   Selection=Yes   SectionCut=Yes   Steel=Yes   Concrete=Yes   Aluminum=Yes   ColdFormed=Yes   Stage=Yes   Bridge=Yes   AutoSeismic=No   AutoWind=No   SelDesSteel=No   SelDesAlum=No   SelDesCold=No   MassWeight=Yes   Color=Cyan
   GroupName=Beam   Selection=Yes   SectionCut=Yes   Steel=Yes   Concrete=Yes   Aluminum=Yes   ColdFormed=Yes   Stage=Yes   Bridge=Yes   AutoSeismic=No   AutoWind=No   SelDesSteel=No   SelDesAlum=No   SelDesCold=No   MassWeight=Yes   Color=Blue
   GroupName=Piles   Selection=Yes   SectionCut=Yes   Steel=Yes   Concrete=Yes   Aluminum=Yes   ColdFormed=Yes   Stage=Yes   Bridge=Yes   AutoSeismic=No   AutoWind=No   SelDesSteel=No   SelDesAlum=No   SelDesCold=No   MassWeight=Yes   Color=Magenta
   GroupName=Beams   Selection=Yes   SectionCut=Yes   Steel=Yes   Concrete=Yes   Aluminum=Yes   ColdFormed=Yes   Stage=Yes   Bridge=Yes   AutoSeismic=No   AutoWind=No   SelDesSteel=No   SelDesAlum=No   SelDesCold=No   MassWeight=Yes   Color=Yellow
 
TABLE:  "GROUPS 2 - ASSIGNMENTS"
 
TABLE:  "JOINT COORDINATES"
   Joint=672517   CoordSys=GLOBAL   CoordType=Cartesian   XorR=-9   Y=-5   Z=0   SpecialJt=No   GUID=eab4b368-062f-42ea-969f-e6683e0f5deb
   Joint=672518   CoordSys=GLOBAL   CoordType=Cartesian   XorR=-9   Y=-2.75   Z=0   SpecialJt=No   GUID=01429b56-1a66-46d4-a4ba-34b5431bbc36
   Joint=672519   CoordSys=GLOBAL   CoordType=Cartesian   XorR=-6   Y=-5   Z=0   SpecialJt=No   GUID=6dfdf25e-6b51-49bd-b223-4cb3f35cc686
   Joint=672520   CoordSys=GLOBAL   CoordType=Cartesian   XorR=-6   Y=-2.75   Z=0   SpecialJt=No   GUID=2ec3617e-90ca-47db-98ce-e0c060ee817e
   Joint=672521   CoordSys=GLOBAL   CoordType=Cartesian   XorR=-3   Y=-5   Z=0   SpecialJt=No   GUID=108aa5f9-4281-4615-9665-2a0b94d06886
   Joint=672522   CoordSys=GLOBAL   CoordType=Cartesian   XorR=-3   Y=-2.75   Z=0   SpecialJt=No   GUID=78135600-1436-4d42-af80-bfbc704ded86
   Joint=672523   CoordSys=GLOBAL   CoordType=Cartesian   XorR=0   Y=-5   Z=0   SpecialJt=No   GUID=87b9f7d5-2da1-43d1-9566-af185b172a3f
   Joint=672524   CoordSys=GLOBAL   CoordType=Cartesian   XorR=0   Y=-2.75   Z=0   SpecialJt=No   GUID=2688d78c-cc11-4a7b-bfe6-a8d981340c69
   Joint=672525   CoordSys=GLOBAL   CoordType=Cartesian   XorR=3   Y=-5   Z=0   SpecialJt=No   GUID=82c796fc-158b-4393-bac2-c09759ef4753
   Joint=672526   CoordSys=GLOBAL   CoordType=Cartesian   XorR=3   Y=-2.75   Z=0   SpecialJt=No   GUID=21ce2596-dd78-4529-8b21-167c47964378
   Joint=672527   CoordSys=GLOBAL   CoordType=Cartesian   XorR=6   Y=-5   Z=0   SpecialJt=No   GUID=edc5b1c7-e211-47de-b7e3-63349b7408e2
   Joint=672528   CoordSys=GLOBAL   CoordType=Cartesian   XorR=6   Y=-2.75   Z=0   SpecialJt=No   GUID=1f2e9872-661d-4727-b956-b26836c65170
   Joint=672529   CoordSys=GLOBAL   CoordType=Cartesian   XorR=9   Y=-5   Z=0   SpecialJt=No   GUID=468a41aa-7cca-49fc-b0e7-bf55b874da3a
   Joint=672530   CoordSys=GLOBAL   CoordType=Cartesian   XorR=9   Y=-2.75   Z=0   SpecialJt=No   GUID=6e30f0eb-b1d4-410c-9776-65421db40453
   Joint=672531   CoordSys=GLOBAL   CoordType=Cartesian   XorR=-9   Y=2.75   Z=0   SpecialJt=No   GUID=a336e527-0940-4ed7-862c-d56dca419d93
   Joint=672532   CoordSys=GLOBAL   CoordType=Cartesian   XorR=-6   Y=2.75   Z=0   SpecialJt=No   GUID=a1c0e72f-4035-42b7-930c-7871f0c03718
   Joint=672533   CoordSys=GLOBAL   CoordType=Cartesian   XorR=-3   Y=2.75   Z=0   SpecialJt=No   GUID=912b03ba-8e1a-437f-a00d-e9933f52f47e
   Joint=672534   CoordSys=GLOBAL   CoordType=Cartesian   XorR=0   Y=2.75   Z=0   SpecialJt=No   GUID=519ca14d-d55c-4c15-a6d1-df962f76bb82
   Joint=672535   CoordSys=GLOBAL   CoordType=Cartesian   XorR=3   Y=2.75   Z=0   SpecialJt=No   GUID=c28cb742-ee4d-4206-b163-7bcb67beb551
   Joint=672536   CoordSys=GLOBAL   CoordType=Cartesian   XorR=6   Y=2.75   Z=0   SpecialJt=No   GUID=824f0ed6-d6a5-4dcb-929f-831a777ab84e
   Joint=672537   CoordSys=GLOBAL   CoordType=Cartesian   XorR=9   Y=2.75   Z=0   SpecialJt=No   GUID=658e50e1-d975-4584-8812-ced85419e0ea
   Joint=672538   CoordSys=GLOBAL   CoordType=Cartesian   XorR=-9   Y=5   Z=0   SpecialJt=No   GUID=764f240f-96f9-4011-a7a0-de9d3617e8df
   Joint=672539   CoordSys=GLOBAL   CoordType=Cartesian   XorR=-6   Y=5   Z=0   SpecialJt=No   GUID=5ce1e072-e068-45c9-a66f-e7e3adabab0e
   Joint=672540   CoordSys=GLOBAL   CoordType=Cartesian   XorR=-3   Y=5   Z=0   SpecialJt=No   GUID=189f8a67-9727-4bb0-b5ca-7038bb592380
   Joint=672541   CoordSys=GLOBAL   CoordType=Cartesian   XorR=0   Y=5   Z=0   SpecialJt=No   GUID=16dafd4e-b1ef-4291-b39e-28027b9d39a2
   Joint=672542   CoordSys=GLOBAL   CoordType=Cartesian   XorR=3   Y=5   Z=0   SpecialJt=No   GUID=0fd8276f-0fc6-428d-ba72-c81792c8e2de
   Joint=672543   CoordSys=GLOBAL   CoordType=Cartesian   XorR=6   Y=5   Z=0   SpecialJt=No   GUID=f3f8417e-bd4f-414d-9489-11fc7048f68c
   Joint=672544   CoordSys=GLOBAL   CoordType=Cartesian   XorR=9   Y=5   Z=0   SpecialJt=No   GUID=afc0201b-54c8-43a6-8b1f-3678d5dad730
   Joint=672545   CoordSys=GLOBAL   CoordType=Cartesian   XorR=-10   Y=-2.75   Z=0   SpecialJt=No   GUID=6b2f6419-fca8-441d-a28d-9b2a3bc7ddb5
   Joint=672546   CoordSys=GLOBAL   CoordType=Cartesian   XorR=-10   Y=2.75   Z=0   SpecialJt=No   GUID=0c7b6edd-c59c-4282-8d38-890bfc101f40
   Joint=672547   CoordSys=GLOBAL   CoordType=Cartesian   XorR=10   Y=-2.75   Z=0   SpecialJt=No   GUID=4a7caf2c-a595-42a2-bbcf-ce24fa67a465
   Joint=672548   CoordSys=GLOBAL   CoordType=Cartesian   XorR=10   Y=2.75   Z=0   SpecialJt=No   GUID=2f262316-d5f3-4a4f-bf84-8cddef0b2392
   Joint=672549   CoordSys=GLOBAL   CoordType=Cartesian   XorR=-9   Y=-2.75   Z=-3   SpecialJt=No   GUID=b6667037-0e6d-421f-94a0-3eca961d0d18
   Joint=672550   CoordSys=GLOBAL   CoordType=Cartesian   XorR=-9   Y=-2.75   Z=-13.4180229476075   SpecialJt=No   GUID=bc177ba6-c63a-48a0-8241-3c0a66599261
   Joint=672551   CoordSys=GLOBAL   CoordType=Cartesian   XorR=-9   Y=-2.75   Z=-39   SpecialJt=No   GUID=55286c7d-553b-4d1c-996e-83203ff2c239
   Joint=672552   CoordSys=GLOBAL   CoordType=Cartesian   XorR=-6   Y=-2.75   Z=-3   SpecialJt=No   GUID=0284b6d8-5498-4225-a429-3ef6aa32851a
   Joint=672553   CoordSys=GLOBAL   CoordType=Cartesian   XorR=-6   Y=-2.75   Z=-13.4180229476075   SpecialJt=No   GUID=80a65349-120b-4ce4-8362-fdf34bcbbd79
   Joint=672554   CoordSys=GLOBAL   CoordType=Cartesian   XorR=-6   Y=-2.75   Z=-39   SpecialJt=No   GUID=a422afa6-9644-4e3d-bddc-77be8f413333
   Joint=672555   CoordSys=GLOBAL   CoordType=Cartesian   XorR=-3   Y=-2.75   Z=-3   SpecialJt=No   GUID=8ec0e59f-68aa-4a18-b87f-6087361fb5e0
   Joint=672556   CoordSys=GLOBAL   CoordType=Cartesian   XorR=-3   Y=-2.75   Z=-13.4180229476075   SpecialJt=No   GUID=8bcaf083-3800-455c-918c-6ac55260dc81
   Joint=672557   CoordSys=GLOBAL   CoordType=Cartesian   XorR=-3   Y=-2.75   Z=-39   SpecialJt=No   GUID=d4cea12d-1866-4e24-b00e-02544881564a
   Joint=672558   CoordSys=GLOBAL   CoordType=Cartesian   XorR=0   Y=-2.75   Z=-3   SpecialJt=No   GUID=0586023b-ea37-4061-94ac-4861e03852f3
   Joint=672559   CoordSys=GLOBAL   CoordType=Cartesian   XorR=0   Y=-2.75   Z=-13.4180229476075   SpecialJt=No   GUID=aa8f21db-9733-4b08-829d-105141cd878f
   Joint=672560   CoordSys=GLOBAL   CoordType=Cartesian   XorR=0   Y=-2.75   Z=-39   SpecialJt=No   GUID=1e8b069e-a698-4581-ade6-079513f366cd
   Joint=672561   CoordSys=GLOBAL   CoordType=Cartesian   XorR=3   Y=-2.75   Z=-3   SpecialJt=No   GUID=6fb3c98f-66b4-4bd3-9727-489820afcc9b
   Joint=672562   CoordSys=GLOBAL   CoordType=Cartesian   XorR=3   Y=-2.75   Z=-13.4180229476075   SpecialJt=No   GUID=7cba5468-d372-4ade-9f0d-a0c8b54041c7
   Joint=672563   CoordSys=GLOBAL   CoordType=Cartesian   XorR=3   Y=-2.75   Z=-39   SpecialJt=No   GUID=19a916ca-e6d1-426b-9c78-ceb2ac7971d3
   Joint=672564   CoordSys=GLOBAL   CoordType=Cartesian   XorR=6   Y=-2.75   Z=-3   SpecialJt=No   GUID=11f07514-a8be-414b-85ca-17a940adaa3b
   Joint=672565   CoordSys=GLOBAL   CoordType=Cartesian   XorR=6   Y=-2.75   Z=-13.4180229476075   SpecialJt=No   GUID=98d40684-ec87-4d73-b7b2-1d60796fc43d
   Joint=672566   CoordSys=GLOBAL   CoordType=Cartesian   XorR=6   Y=-2.75   Z=-39   SpecialJt=No   GUID=ea975e71-bd02-4dc8-b028-ae13096a7033
   Joint=672567   CoordSys=GLOBAL   CoordType=Cartesian   XorR=9   Y=-2.75   Z=-3   SpecialJt=No   GUID=9cc762e0-7736-49b1-8280-361f872c1bdd
   Joint=672568   CoordSys=GLOBAL   CoordType=Cartesian   XorR=9   Y=-2.75   Z=-13.4180229476075   SpecialJt=No   GUID=4df9d20c-c0f9-4c3c-b838-75da765d71e6
   Joint=672569   CoordSys=GLOBAL   CoordType=Cartesian   XorR=9   Y=-2.75   Z=-39   SpecialJt=No   GUID=1a880e60-831e-4f58-a08e-9a2441900b18
   Joint=672570   CoordSys=GLOBAL   CoordType=Cartesian   XorR=-9   Y=2.75   Z=-13.4180229476075   SpecialJt=No   GUID=ad799654-13bc-49c1-9d09-d9ae3736192f
   Joint=672571   CoordSys=GLOBAL   CoordType=Cartesian   XorR=-9   Y=2.75   Z=-39   SpecialJt=No   GUID=da271176-18b6-435a-8ea6-fe31aee6cea5
   Joint=672572   CoordSys=GLOBAL   CoordType=Cartesian   XorR=-6   Y=2.75   Z=-13.4180229476075   SpecialJt=No   GUID=8b69da30-a0ca-4fed-b486-20351c4959aa
   Joint=672573   CoordSys=GLOBAL   CoordType=Cartesian   XorR=-6   Y=2.75   Z=-39   SpecialJt=No   GUID=ecedc9ce-7419-4101-b615-dddd08ada281
   Joint=672574   CoordSys=GLOBAL   CoordType=Cartesian   XorR=-3   Y=2.75   Z=-13.4180229476075   SpecialJt=No   GUID=82af031e-b9a9-4cb3-88f3-b4643ee87198
   Joint=672575   CoordSys=GLOBAL   CoordType=Cartesian   XorR=-3   Y=2.75   Z=-39   SpecialJt=No   GUID=03017edb-bddd-4385-a3ec-bc0380d6b880
   Joint=672576   CoordSys=GLOBAL   CoordType=Cartesian   XorR=0   Y=2.75   Z=-13.4180229476075   SpecialJt=No   GUID=a9003331-bba9-4f45-88cd-ef6cfceced52
   Joint=672577   CoordSys=GLOBAL   CoordType=Cartesian   XorR=0   Y=2.75   Z=-39   SpecialJt=No   GUID=f4e74cd6-020d-40da-8a01-09f13eb5dcb9
   Joint=672578   CoordSys=GLOBAL   CoordType=Cartesian   XorR=3   Y=2.75   Z=-13.4180229476075   SpecialJt=No   GUID=fe179555-0a3b-413a-82f2-dc4f46ae8259
   Joint=672579   CoordSys=GLOBAL   CoordType=Cartesian   XorR=3   Y=2.75   Z=-39   SpecialJt=No   GUID=f4be49f3-d7f2-4cfb-9608-65953bfaecd3
   Joint=672580   CoordSys=GLOBAL   CoordType=Cartesian   XorR=6   Y=2.75   Z=-13.4180229476075   SpecialJt=No   GUID=92c50734-4f1e-448d-b76d-6d2542e3c41f
   Joint=672581   CoordSys=GLOBAL   CoordType=Cartesian   XorR=6   Y=2.75   Z=-39   SpecialJt=No   GUID=58f2bd61-3610-41e9-bc4d-bf5c53cce408
   Joint=672582   CoordSys=GLOBAL   CoordType=Cartesian   XorR=9   Y=2.75   Z=-13.4180229476075   SpecialJt=No   GUID=43bebe26-1da3-4085-a6b6-6b52cf92316a
   Joint=672583   CoordSys=GLOBAL   CoordType=Cartesian   XorR=9   Y=2.75   Z=-39   SpecialJt=No   GUID=2af563ee-c6ea-4d19-8c5f-e65fc5406d47
   Joint=672584   CoordSys=GLOBAL   CoordType=Cartesian   XorR=-10   Y=-5   Z=0   SpecialJt=No   GUID=8a8f646a-12f3-4fcf-9b7b-d1b58d188b82
   Joint=672585   CoordSys=GLOBAL   CoordType=Cartesian   XorR=10   Y=-5   Z=0   SpecialJt=No   GUID=d7e3d3f6-c668-4801-bf0a-e48d608701e6
   Joint=672586   CoordSys=GLOBAL   CoordType=Cartesian   XorR=-10   Y=5   Z=0   SpecialJt=No   GUID=1be677cd-3b49-46c9-bce1-690a2cf135d4
   Joint=672587   CoordSys=GLOBAL   CoordType=Cartesian   XorR=10   Y=5   Z=0   SpecialJt=No   GUID=27a787a3-d9ab-40da-b890-7493db8ef09f
 
TABLE:  "JOINT PATTERN DEFINITIONS"
   Pattern=Default
 
TABLE:  "JOINT RESTRAINT ASSIGNMENTS"
   Joint=672550   U1=Yes   U2=Yes   U3=No   R1=Yes   R2=Yes   R3=Yes
   Joint=672551   U1=No   U2=No   U3=Yes   R1=No   R2=No   R3=No
   Joint=672553   U1=Yes   U2=Yes   U3=No   R1=Yes   R2=Yes   R3=Yes
   Joint=672554   U1=No   U2=No   U3=Yes   R1=No   R2=No   R3=No
   Joint=672556   U1=Yes   U2=Yes   U3=No   R1=Yes   R2=Yes   R3=Yes
   Joint=672557   U1=No   U2=No   U3=Yes   R1=No   R2=No   R3=No
   Joint=672559   U1=Yes   U2=Yes   U3=No   R1=Yes   R2=Yes   R3=Yes
   Joint=672560   U1=No   U2=No   U3=Yes   R1=No   R2=No   R3=No
   Joint=672562   U1=Yes   U2=Yes   U3=No   R1=Yes   R2=Yes   R3=Yes
   Joint=672563   U1=No   U2=No   U3=Yes   R1=No   R2=No   R3=No
   Joint=672565   U1=Yes   U2=Yes   U3=No   R1=Yes   R2=Yes   R3=Yes
   Joint=672566   U1=No   U2=No   U3=Yes   R1=No   R2=No   R3=No
   Joint=672568   U1=Yes   U2=Yes   U3=No   R1=Yes   R2=Yes   R3=Yes
   Joint=672569   U1=No   U2=No   U3=Yes   R1=No   R2=No   R3=No
   Joint=672570   U1=Yes   U2=Yes   U3=No   R1=Yes   R2=Yes   R3=Yes
   Joint=672571   U1=No   U2=No   U3=Yes   R1=No   R2=No   R3=No
   Joint=672572   U1=Yes   U2=Yes   U3=No   R1=Yes   R2=Yes   R3=Yes
   Joint=672573   U1=No   U2=No   U3=Yes   R1=No   R2=No   R3=No
   Joint=672574   U1=Yes   U2=Yes   U3=No   R1=Yes   R2=Yes   R3=Yes
   Joint=672575   U1=No   U2=No   U3=Yes   R1=No   R2=No   R3=No
   Joint=672576   U1=Yes   U2=Yes   U3=No   R1=Yes   R2=Yes   R3=Yes
   Joint=672577   U1=No   U2=No   U3=Yes   R1=No   R2=No   R3=No
   Joint=672578   U1=Yes   U2=Yes   U3=No   R1=Yes   R2=Yes   R3=Yes
   Joint=672579   U1=No   U2=No   U3=Yes   R1=No   R2=No   R3=No
   Joint=672580   U1=Yes   U2=Yes   U3=No   R1=Yes   R2=Yes   R3=Yes
   Joint=672581   U1=No   U2=No   U3=Yes   R1=No   R2=No   R3=No
   Joint=672582   U1=Yes   U2=Yes   U3=No   R1=Yes   R2=Yes   R3=Yes
   Joint=672583   U1=No   U2=No   U3=Yes   R1=No   R2=No   R3=No
 
TABLE:  "LOAD CASE DEFINITIONS"
   Case=DEAD   Type=LinStatic   InitialCond=Zero   DesTypeOpt="Prog Det"   DesignType=Dead   DesActOpt="Prog Det"   DesignAct=Non-Composite   AutoType=None   RunCase=Yes
   Case=MODAL   Type=LinModal   InitialCond=Zero   DesTypeOpt="Prog Det"   DesignType=Other   DesActOpt="Prog Det"   DesignAct=Other   AutoType=None   RunCase=Yes
   Case=LL   Type=LinStatic   InitialCond=Zero   DesTypeOpt="Prog Det"   DesignType=Live   DesActOpt="Prog Det"   DesignAct="Short-Term Composite"   AutoType=None   RunCase=Yes
 
TABLE:  "LOAD PATTERN DEFINITIONS"
   LoadPat=DEAD   DesignType=Dead   SelfWtMult=1
   LoadPat=LL   DesignType=Live   SelfWtMult=0
 
TABLE:  "MASS SOURCE"
   MassSource=MSSSRC1   Elements=Yes   Masses=Yes   Loads=No   IsDefault=Yes
 
TABLE:  "MATERIAL PROPERTIES 01 - GENERAL"
   Material=A706   Type=Rebar   SymType=Uniaxial   TempDepend=No   Color=Gray8Dark   GUID=30185aab-1311-4f4b-9ffe-ddad707d22d9   Notes="ASTM A706 added 8/23/2025 4:27:57 PM"
   Material=BTCT   Type=Concrete   SymType=Isotropic   TempDepend=No   Color=Blue   Notes="Concrete added 24-Feb-23 16:30:01"
   Material=BTCTCOC   Type=Concrete   SymType=Isotropic   TempDepend=No   Color=Blue   Notes="Concrete added 24-Feb-23 16:30:01"
   Material=Steel   Type=Steel   SymType=Isotropic   TempDepend=No   Color=Magenta   GUID=2f952889-4898-4964-97a4-5fb5c5008d33   Notes="Steel added 8/24/2025 2:51:43 PM"
   Material=Tendon   Type=Tendon   SymType=Uniaxial   TempDepend=No   Color=Yellow   GUID=7dfcd093-823e-4b3a-b96f-35d5bcaf456f   Notes="Tendon added 8/24/2025 2:51:43 PM"
 
TABLE:  "MATERIAL PROPERTIES 02 - BASIC MECHANICAL PROPERTIES"
   Material=A706   UnitWeight=7.84904757236607   UnitMass=0.800380070686609   E1=20389019.1580383   A1=1.16999994421006E-05
   Material=BTCT   UnitWeight=2.40276966501002   UnitMass=0.245014307353044   E1=2900000   G12=1208333.33333333   U12=0.2   A1=9.9E-06
   Material=BTCTCOC   UnitWeight=2.40276966501002   UnitMass=0.245014307353044   E1=3800000000   G12=1583333333.33333   U12=0.2   A1=9.9E-06
   Material=Steel   UnitWeight=7.84904757236607   UnitMass=0.800380070686609   E1=20389019.1580383   G12=7841930.44539935   U12=0.3   A1=1.17E-05
   Material=Tendon   UnitWeight=7.84904757236607   UnitMass=0.800380070686609   E1=20037484.3449687   A1=1.16999994421006E-05
 
TABLE:  "MATERIAL PROPERTIES 03A - STEEL DATA"
   Material=Steel   Fy=35153.4813069626   Fu=45699.5256990514   EffFy=38668.8294376589   EffFu=50269.4782689565   SSCurveOpt=Simple   SSHysType=Kinematic   SHard=0.015   SMax=0.11   SRup=0.17   FinalSlope=-0.1   CoupModType="Von Mises"
 
TABLE:  "MATERIAL PROPERTIES 03B - CONCRETE DATA"
   Material=BTCT   Fc=2812.27850455701   eFc=2812.27850455701   LtWtConc=No   SSCurveOpt=Mander   SSHysType=Takeda   SFc=0.002   SCap=0.005   FinalSlope=-0.1   FAngle=0   DAngle=0   CoupModType="Modified Darwin-Pecknold"
   Material=BTCTCOC   Fc=2812.27850455701   eFc=2812.27850455701   LtWtConc=No   SSCurveOpt=Mander   SSHysType=Takeda   SFc=0.002   SCap=0.005   FinalSlope=-0.1   FAngle=0   DAngle=0   CoupModType="Modified Darwin-Pecknold"
 
TABLE:  "MATERIAL PROPERTIES 03E - REBAR DATA"
   Material=A706   Fy=42184.1775683551   Fu=56245.5700911402   EffFy=46402.5953251907   EffFu=61870.1271002542   SSCurveOpt=Simple   SSHysType=Kinematic   SHard=0.011   SCap=0.11   FinalSlope=-0.1   UseCTDef=No   CoupModType="Von Mises"
 
TABLE:  "MATERIAL PROPERTIES 03F - TENDON DATA"
   Material=Tendon   Fy=172322.365366731   Fu=189828.799057598   SSCurveOpt="270 ksi"   SSHysType=Kinematic   FinalSlope=-0.1   CoupModType="Von Mises"
 
TABLE:  "MATERIAL PROPERTIES 03J - COUPLED NONLINEAR VON MISES DATA"
   Material=A706   YieldStress=46402.5953251907   LinIsoHard=No   LinKinHard=No   NLIsoSaHard=No
   Material=Steel   YieldStress=38668.8294376589   LinIsoHard=No   LinKinHard=No   NLIsoSaHard=No
   Material=Tendon   YieldStress=172322.365366731   LinIsoHard=No   LinKinHard=No   NLIsoSaHard=No
 
TABLE:  "MATERIAL PROPERTIES 06 - DAMPING PARAMETERS"
   Material=A706   ModalRatio=0   VisMass=0   VisStiff=0   HysMass=0   HysStiff=0
   Material=BTCT   ModalRatio=0   VisMass=0   VisStiff=0   HysMass=0   HysStiff=0
   Material=BTCTCOC   ModalRatio=0   VisMass=0   VisStiff=0   HysMass=0   HysStiff=0
   Material=Steel   ModalRatio=0   VisMass=0   VisStiff=0   HysMass=0   HysStiff=0
   Material=Tendon   ModalRatio=0   VisMass=0   VisStiff=0   HysMass=0   HysStiff=0
 
TABLE:  "MATERIAL PROPERTIES 09 - ACCEPTANCE CRITERIA"
   Material=A706   IOTens=0.01   LSTens=0.02   CPTens=0.05   IOComp=-0.005   LSComp=-0.01   CPComp=-0.02
   Material=BTCT   IOTens=0.01   LSTens=0.02   CPTens=0.05   IOComp=-0.003   LSComp=-0.006   CPComp=-0.015   IgnoreTens=Yes
   Material=BTCTCOC   IOTens=0.01   LSTens=0.02   CPTens=0.05   IOComp=-0.003   LSComp=-0.006   CPComp=-0.015   IgnoreTens=Yes
   Material=Steel   IOTens=0.01   LSTens=0.02   CPTens=0.05   IOComp=-0.005   LSComp=-0.01   CPComp=-0.02
   Material=Tendon   IOTens=0.015   LSTens=0.023   CPTens=0.03   IOComp=-0.015   LSComp=-0.023   CPComp=-0.03
 
TABLE:  "OPTIONS - COLORS - DISPLAY"
   DeviceType=Screen   Points=Blue   LinesFrame=Blue   LinesFrmDL=Blue   LinesCable=Green   LinesTendon=Green   SpringLinks=Green   Restraints=Green   Releases=Green   Axes=Cyan   Text=Black   ShadowLines=Gray8Dark   GuideLines=Gray8Dark _
        Highlight=Red   Selection=10504778   AreaFillBot=Red   AreaFillTop=16744703   AreaFillSd=Red   AreaEdge=DarkRed   SolidF1=Red   SolidF2=Blue   SolidF3=Green   SolidF4=Yellow   SolidF5=White   SolidF6=Cyan   SolidEdge=DarkRed _
        Floor=Gray4   Background=White   BGLowLeft=White   BGLowRight=White   BGUpRight=White   Darkness=0.5
   DeviceType=Printer   Points=Gray8Dark   LinesFrame=Black   LinesFrmDL=Gray4   LinesCable=Black   LinesTendon=Black   SpringLinks=Gray8Dark   Restraints=Gray8Dark   Releases=Gray4   Axes=Black   Text=Black   ShadowLines=Gray4 _
        GuideLines=Gray4   Highlight=Black   Selection=Black   AreaFillBot=Gray4   AreaFillTop=Gray8Dark   AreaFillSd=Gray4   AreaEdge=Black   SolidF1=Gray1Light   SolidF2=Gray2   SolidF3=Gray3   SolidF4=Gray4   SolidF5=Gray5 _
        SolidF6=Gray6   SolidEdge=Black   Floor=Gray4   Background=White   BGLowLeft=White   BGLowRight=White   BGUpRight=White   Darkness=0.5
   DeviceType="Color Printer"   Points=Blue   LinesFrame=Blue   LinesFrmDL=Blue   LinesCable=Green   LinesTendon=Green   SpringLinks=Green   Restraints=Green   Releases=Green   Axes=Cyan   Text=Black   ShadowLines=Gray8Dark _
        GuideLines=Gray8Dark   Highlight=Red   Selection=10504778   AreaFillBot=Red   AreaFillTop=16744703   AreaFillSd=Red   AreaEdge=DarkRed   SolidF1=Red   SolidF2=Blue   SolidF3=Green   SolidF4=Yellow   SolidF5=White   SolidF6=Cyan _
        SolidEdge=DarkRed   Floor=Gray4   Background=White   BGLowLeft=White   BGLowRight=White   BGUpRight=White   Darkness=0.5
 
TABLE:  "OPTIONS - COLORS - OUTPUT"
   DeviceType=Screen   Contour1=13107400   Contour2=6553828   Contour3=Red   Contour4=16639   Contour5=Orange   Contour6=43775   Contour7=54527   Contour8=Yellow   Contour9=65408   Contour10=Green   Contour11=8453888   Contour12=Cyan _
        Contour13=16755200   Contour14=16733440   Contour15=Blue   Transpare=0.5   Ratio1=Cyan   Ratio2=Green   Ratio3=Yellow   Ratio4=Orange   Ratio5=Red   RatioNotD=Gray4   RatioNotC=Red   RatioVal1=0.5   RatioVal2=0.7   RatioVal3=0.9 _
        RatioVal4=1   DFillPos=Blue   DFillNeg=Red   DFillRPos=Green   DFillRNeg=Green
   DeviceType=Printer   Contour1=Black   Contour2=3158064   Contour3=4210752   Contour4=5263440   Contour5=6316128   Contour6=7368816   Contour7=Gray8Dark   Contour8=Gray7   Contour9=Gray6   Contour10=Gray5   Contour11=Gray4 _
        Contour12=Gray3   Contour13=Gray2   Contour14=Gray1Light   Contour15=White   Transpare=0   Ratio1=Gray2   Ratio2=Gray4   Ratio3=Gray8Dark   Ratio4=4210752   Ratio5=Black   RatioNotD=Gray4   RatioNotC=Black   RatioVal1=0.5 _
        RatioVal2=0.7   RatioVal3=0.9   RatioVal4=1   DFillPos=Gray8Dark   DFillNeg=Gray8Dark   DFillRPos=4210752   DFillRNeg=4210752
   DeviceType="Color Printer"   Contour1=13107400   Contour2=6553828   Contour3=Red   Contour4=16639   Contour5=Orange   Contour6=43775   Contour7=54527   Contour8=Yellow   Contour9=65408   Contour10=Green   Contour11=8453888 _
        Contour12=Cyan   Contour13=16755200   Contour14=16733440   Contour15=Blue   Transpare=0   Ratio1=Cyan   Ratio2=Green   Ratio3=Yellow   Ratio4=Orange   Ratio5=Red   RatioNotD=Gray4   RatioNotC=Red   RatioVal1=0.5   RatioVal2=0.7 _
        RatioVal3=0.9   RatioVal4=1   DFillPos=Blue   DFillNeg=Red   DFillRPos=Green   DFillRNeg=Green
 
TABLE:  "OVERWRITES - CONCRETE DESIGN - CSA-A233-14"
   Frame=757141   DesignSect="Program Determined"   FrameType="Program Determined"   RLLF=0   XLMajor=0   XLMinor=0   XKMajor=0   XKMinor=0   CmMajor=0   CmMinor=0   DbMajor=0   DbMinor=0   DsMajor=0   DsMinor=0   Rd=0   Ro=0   MaxAggSize=0
   Frame=757142   DesignSect="Program Determined"   FrameType="Program Determined"   RLLF=0   XLMajor=0   XLMinor=0   XKMajor=0   XKMinor=0   CmMajor=0   CmMinor=0   DbMajor=0   DbMinor=0   DsMajor=0   DsMinor=0   Rd=0   Ro=0   MaxAggSize=0
   Frame=757143   DesignSect="Program Determined"   FrameType="Program Determined"   RLLF=0   XLMajor=0   XLMinor=0   XKMajor=0   XKMinor=0   CmMajor=0   CmMinor=0   DbMajor=0   DbMinor=0   DsMajor=0   DsMinor=0   Rd=0   Ro=0   MaxAggSize=0
   Frame=757144   DesignSect="Program Determined"   FrameType="Program Determined"   RLLF=0   XLMajor=0   XLMinor=0   XKMajor=0   XKMinor=0   CmMajor=0   CmMinor=0   DbMajor=0   DbMinor=0   DsMajor=0   DsMinor=0   Rd=0   Ro=0   MaxAggSize=0
   Frame=757145   DesignSect="Program Determined"   FrameType="Program Determined"   RLLF=0   XLMajor=0   XLMinor=0   XKMajor=0   XKMinor=0   CmMajor=0   CmMinor=0   DbMajor=0   DbMinor=0   DsMajor=0   DsMinor=0   Rd=0   Ro=0   MaxAggSize=0
   Frame=757146   DesignSect="Program Determined"   FrameType="Program Determined"   RLLF=0   XLMajor=0   XLMinor=0   XKMajor=0   XKMinor=0   CmMajor=0   CmMinor=0   DbMajor=0   DbMinor=0   DsMajor=0   DsMinor=0   Rd=0   Ro=0   MaxAggSize=0
   Frame=757147   DesignSect="Program Determined"   FrameType="Program Determined"   RLLF=0   XLMajor=0   XLMinor=0   XKMajor=0   XKMinor=0   CmMajor=0   CmMinor=0   DbMajor=0   DbMinor=0   DsMajor=0   DsMinor=0   Rd=0   Ro=0   MaxAggSize=0
   Frame=757148   DesignSect="Program Determined"   FrameType="Program Determined"   RLLF=0   XLMajor=0   XLMinor=0   XKMajor=0   XKMinor=0   CmMajor=0   CmMinor=0   DbMajor=0   DbMinor=0   DsMajor=0   DsMinor=0   Rd=0   Ro=0   MaxAggSize=0
   Frame=757149   DesignSect="Program Determined"   FrameType="Program Determined"   RLLF=0   XLMajor=0   XLMinor=0   XKMajor=0   XKMinor=0   CmMajor=0   CmMinor=0   DbMajor=0   DbMinor=0   DsMajor=0   DsMinor=0   Rd=0   Ro=0   MaxAggSize=0
   Frame=757150   DesignSect="Program Determined"   FrameType="Program Determined"   RLLF=0   XLMajor=0   XLMinor=0   XKMajor=0   XKMinor=0   CmMajor=0   CmMinor=0   DbMajor=0   DbMinor=0   DsMajor=0   DsMinor=0   Rd=0   Ro=0   MaxAggSize=0
   Frame=757151   DesignSect="Program Determined"   FrameType="Program Determined"   RLLF=0   XLMajor=0   XLMinor=0   XKMajor=0   XKMinor=0   CmMajor=0   CmMinor=0   DbMajor=0   DbMinor=0   DsMajor=0   DsMinor=0   Rd=0   Ro=0   MaxAggSize=0
   Frame=757152   DesignSect="Program Determined"   FrameType="Program Determined"   RLLF=0   XLMajor=0   XLMinor=0   XKMajor=0   XKMinor=0   CmMajor=0   CmMinor=0   DbMajor=0   DbMinor=0   DsMajor=0   DsMinor=0   Rd=0   Ro=0   MaxAggSize=0
   Frame=757153   DesignSect="Program Determined"   FrameType="Program Determined"   RLLF=0   XLMajor=0   XLMinor=0   XKMajor=0   XKMinor=0   CmMajor=0   CmMinor=0   DbMajor=0   DbMinor=0   DsMajor=0   DsMinor=0   Rd=0   Ro=0   MaxAggSize=0
   Frame=757154   DesignSect="Program Determined"   FrameType="Program Determined"   RLLF=0   XLMajor=0   XLMinor=0   XKMajor=0   XKMinor=0   CmMajor=0   CmMinor=0   DbMajor=0   DbMinor=0   DsMajor=0   DsMinor=0   Rd=0   Ro=0   MaxAggSize=0
   Frame=757155   DesignSect="Program Determined"   FrameType="Program Determined"   RLLF=0   XLMajor=0   XLMinor=0   XKMajor=0   XKMinor=0   CmMajor=0   CmMinor=0   DbMajor=0   DbMinor=0   DsMajor=0   DsMinor=0   Rd=0   Ro=0   MaxAggSize=0
   Frame=757156   DesignSect="Program Determined"   FrameType="Program Determined"   RLLF=0   XLMajor=0   XLMinor=0   XKMajor=0   XKMinor=0   CmMajor=0   CmMinor=0   DbMajor=0   DbMinor=0   DsMajor=0   DsMinor=0   Rd=0   Ro=0   MaxAggSize=0
   Frame=757157   DesignSect="Program Determined"   FrameType="Program Determined"   RLLF=0   XLMajor=0   XLMinor=0   XKMajor=0   XKMinor=0   CmMajor=0   CmMinor=0   DbMajor=0   DbMinor=0   DsMajor=0   DsMinor=0   Rd=0   Ro=0   MaxAggSize=0
   Frame=757158   DesignSect="Program Determined"   FrameType="Program Determined"   RLLF=0   XLMajor=0   XLMinor=0   XKMajor=0   XKMinor=0   CmMajor=0   CmMinor=0   DbMajor=0   DbMinor=0   DsMajor=0   DsMinor=0   Rd=0   Ro=0   MaxAggSize=0
   Frame=757159   DesignSect="Program Determined"   FrameType="Program Determined"   RLLF=0   XLMajor=0   XLMinor=0   XKMajor=0   XKMinor=0   CmMajor=0   CmMinor=0   DbMajor=0   DbMinor=0   DsMajor=0   DsMinor=0   Rd=0   Ro=0   MaxAggSize=0
   Frame=757160   DesignSect="Program Determined"   FrameType="Program Determined"   RLLF=0   XLMajor=0   XLMinor=0   XKMajor=0   XKMinor=0   CmMajor=0   CmMinor=0   DbMajor=0   DbMinor=0   DsMajor=0   DsMinor=0   Rd=0   Ro=0   MaxAggSize=0
# ... 30 like lines cut
 
TABLE:  "PREFERENCES - ALUMINUM DESIGN - AA 2015"
   THDesign=Envelopes   SRatioLimit=1   Provision=ASD   LatFact=1.33333333333333   UseLatFact=No   Bridge=No   OmegaTy=1.65   OmegaTr=1.95   OmegaC=1.65   OmegaBo=1.65   OmegaBr=1.95   OmegaVo=1.65   OmegaVr=1.95
 
TABLE:  "PREFERENCES - COLD FORMED DESIGN - AISI-ASD96"
   THDesign=Envelopes   FrameType="Braced Frame"   SRatioLimit=1   MaxIter=1   OmegaBS=1.67   OmegaBUS=1.67   OmegaBLTB=1.67   OmegaVS=1.67   OmegaVNS=1.5   OmegaT=1.67   OmegaC=1.8
 
TABLE:  "PREFERENCES - CONCRETE DESIGN - CSA-A233-14"
   THDesign=Envelopes   NumCurves=24   NumPoints=11   MinEccen=Yes   BCCDesign=Yes   CTorsion=Yes   PatLLF=0.75   UFLimit=0.95   PhiS=0.85   PhiC=0.65
 
TABLE:  "PREFERENCES - CONCRETE SHELL DESIGN - EUROCODE 2-2004"
   Country="CEN Default"   GammaS=1.15   GammaC=1.5   AlphaCC=1
 
TABLE:  "PREFERENCES - DIMENSIONAL"
   MergeTol=0.001   FineGrid=0.25   Nudge=0.25   SelectTol=3   SnapTol=12   SLineThick=1   PLineThick=4   MaxFont=8   MinFont=3   AutoZoom=10   ShrinkFact=70   TextFileLen=240
 
TABLE:  "PREFERENCES - STEEL DESIGN - AISC 360-10"
   THDesign=Envelopes   FrameType=SMF   PatLLF=0.75   SRatioLimit=0.95   MaxIter=1   SDC=D   SeisCode=No   SeisLoad=No   ImpFactor=1   SystemRho=1   SystemSds=0.5   SystemR=8   SystemCd=5.5   Omega0=3   Provision=LRFD _
        AMethod="Direct Analysis"   SOMethod="General 2nd Order"   SRMethod="Tau-b Fixed"   NLCoeff=0.002   PhiB=0.9   PhiC=0.9   PhiTY=0.9   PhiTF=0.75   PhiV=0.9   PhiVRolledI=1   PhiVT=0.9   PlugWeld=Yes   HSSWelding=ERW   HSSReduceT=No _
        CheckDefl=No   DLRat=120   SDLAndLLRat=120   LLRat=360   TotalRat=240   NetRat=240
 
TABLE:  "PROGRAM CONTROL"
   ProgramName=SAP2000   Version=24.0.0   CurrUnits="Tonf, m, C"   SteelCode="AISC 360-10"   ConcCode="CSA A23.3-14"   AlumCode="AA 2015"   ColdCode=AISI-ASD96   RegenHinge=Yes
 
TABLE:  "PROJECT INFORMATION"
   Item="Company Name"   Data=po
   Item="Client Name"
   Item="Project Name"
   Item="Project Number"
   Item="Model Name"
   Item="Model Description"
   Item="Revision Number"
   Item="Frame Type"
   Item=Engineer
   Item=Checker
   Item=Supervisor
   Item="Issue Code"
   Item="Design Code"
 
TABLE:  "REBAR SIZES"
   RebarID=#2   Area=3.2258E-05   Diameter=0.00635
   RebarID=#3   Area=7.09675996154547E-05   Diameter=0.009525
   RebarID=#4   Area=0.000129032001922727   Diameter=0.0127
   RebarID=#5   Area=0.000199999601538181   Diameter=0.015875
   RebarID=#6   Area=0.000283870398461819   Diameter=0.01905
   RebarID=#7   Area=0.000387096015381813   Diameter=0.022225
   RebarID=#8   Area=0.000509676413843632   Diameter=0.0254
   RebarID=#9   Area=0.00064516   Diameter=0.0286512005329132
   RebarID=#10   Area=0.00081935318769455   Diameter=0.0322579995155334
   RebarID=#11   Area=0.00100644956308365   Diameter=0.0358139991521835
   RebarID=#14   Area=0.00145161   Diameter=0.0430021989583969
   RebarID=#18   Area=0.00258064   Diameter=0.0573277992248535
   RebarID=10M   Area=0.000100000004162606   Diameter=0.0113000003604438
   RebarID=15M   Area=0.000200000008325212   Diameter=0.0160000002402959
   RebarID=20M   Area=0.000300000012487818   Diameter=0.0195000002928606
   RebarID=25M   Area=0.000500000020813031   Diameter=0.0252000011414055
   RebarID=30M   Area=0.000700000029138243   Diameter=0.0299000000675832
   RebarID=35M   Area=0.00100000004162606   Diameter=0.0357000012990997
   RebarID=45M   Area=0.00150000006243909   Diameter=0.0437000014192476
   RebarID=55M   Area=0.00250000010406515   Diameter=0.056400002372922
   RebarID=6d   Area=2.83000004150781E-05   Diameter=0.00600000009011096
   RebarID=8d   Area=5.03000013308514E-05   Diameter=0.00800000012014795
   RebarID=10d   Area=7.85000032676458E-05   Diameter=0.0100000001501849
   RebarID=12d   Area=0.000113000004703745   Diameter=0.0120000001802219
   RebarID=14d   Area=0.000154000006410413   Diameter=0.0140000002102589
   RebarID=16d   Area=0.000201000008366838   Diameter=0.0160000002402959
   RebarID=20d   Area=0.000314000013070583   Diameter=0.0200000003003699
   RebarID=25d   Area=0.000491000020438396   Diameter=0.0250000003754623
   RebarID=26d   Area=0.000531000022103439   Diameter=0.0260000003904808
   RebarID=28d   Area=0.000616000025641654   Diameter=0.0280000004205178
   RebarID=N12   Area=0.000113000004703745   Diameter=0.0120000001802219
   RebarID=N16   Area=0.000201000008366838   Diameter=0.0160000002402959
   RebarID=N20   Area=0.000314000013070583   Diameter=0.0200000003003699
   RebarID=N24   Area=0.00045200001881498   Diameter=0.0240000003604438
   RebarID=N28   Area=0.000616000025641654   Diameter=0.0280000004205178
   RebarID=N32   Area=0.000804000033467353   Diameter=0.0320000004805918
   RebarID=N36   Area=0.00102000004245858   Diameter=0.0360000005406658
 
TABLE:  "SOLID PROPERTY DEFINITIONS"
   SolidProp=Solid1   Material=BTCT   MatAngleA=0   MatAngleB=0   MatAngleC=0   InComp=Yes   Color=Gray8Dark
 
END TABLE DATA
