File D:\ResearchLab\02_Projects\02_Projects\Tap chi XD_SFOA\code\SOO_BD\BD_Sap\SOO_Cost_W02\BD_2.$2k was saved on m/d/yy at h:mm:ss
 
TABLE:  "ACTIVE DEGREES OF FREEDOM"
   UX=Yes   UY=Yes   UZ=Yes   RX=Yes   RY=Yes   RZ=Yes
 
TABLE:  "ANALYSIS OPTIONS"
   Solver=Advanced   SolverProc=Auto   Force32Bit=No   StiffCase=None   GeomMod=None   HingeOpt="In Elements"   NumAThreads=0   MaxFileSize=0   NumDThreads=0   NumRThreads=0   UseMMFiles="Program Determined"   AllowDiff=No
 
TABLE:  "AUTO WAVE 3 - WAVE CHARACTERISTICS - GENERAL"
   WaveChar=Default   WaveType="From Theory"   KinFactor=1   SWaterDepth=1800   WaveHeight=720   WavePeriod=12   WaveTheory=Linear
 
TABLE:  "CASE - STATIC 1 - LOAD ASSIGNMENTS"
   Case=DEAD   LoadType="Load pattern"   LoadName=DEAD   LoadSF=1
   Case=VA   LoadType="Load pattern"   LoadName=VA   LoadSF=1
   Case=NEO   LoadType="Load pattern"   LoadName=NEO   LoadSF=1
   Case=HT   LoadType="Load pattern"   LoadName=HT   LoadSF=1
 
TABLE:  "COMBINATION DEFINITIONS"
   ComboName=COMB1   ComboType="Linear Add"   AutoDesign=No   CaseName=DEAD   ScaleFactor=1   SteelDesign=None   ConcDesign=None   AlumDesign=None   ColdDesign=None
   ComboName=COMB2   ComboType="Linear Add"   AutoDesign=No   CaseName=DEAD   ScaleFactor=1   SteelDesign=None   ConcDesign=None   AlumDesign=None   ColdDesign=None
   ComboName=COMB2   CaseName=VA   ScaleFactor=1
   ComboName=COMB3   ComboType="Linear Add"   AutoDesign=No   CaseName=DEAD   ScaleFactor=1   SteelDesign=None   ConcDesign=None   AlumDesign=None   ColdDesign=None   GUID=9746dcd0-b2ab-44bc-aaed-eef3d22798e8
   ComboName=COMB3   CaseName=NEO   ScaleFactor=1
   ComboName=BAO   ComboType=Envelope   AutoDesign=No   CaseName=COMB1   ScaleFactor=1   SteelDesign=None   ConcDesign=None   AlumDesign=None   ColdDesign=None
   ComboName=BAO   CaseName=COMB2   ScaleFactor=1
   ComboName=BAO   CaseName=COMB3   ScaleFactor=1
   ComboName=COMB4   ComboType="Linear Add"   AutoDesign=No   CaseName=DEAD   ScaleFactor=1   SteelDesign=None   ConcDesign=None   AlumDesign=None   ColdDesign=None   GUID=5526a5db-3785-4cd6-8d12-c2c3178ac21f
   ComboName=COMB4   CaseName=HT   ScaleFactor=1
   ComboName=COMB5   ComboType="Linear Add"   AutoDesign=No   CaseName=DEAD   ScaleFactor=1   SteelDesign=None   ConcDesign=None   AlumDesign=None   ColdDesign=None   GUID=121ef4da-b459-4838-a8b5-25587db4c629
   ComboName=COMB5   CaseName=VA   ScaleFactor=1
   ComboName=COMB5   CaseName=HT   ScaleFactor=1
   ComboName=COMB6   ComboType="Linear Add"   AutoDesign=No   CaseName=DEAD   ScaleFactor=1   SteelDesign=None   ConcDesign=None   AlumDesign=None   ColdDesign=None   GUID=0b8e524a-25bc-4c96-b9fb-4ff2446c1c13
   ComboName=COMB6   CaseName=NEO   ScaleFactor=1
   ComboName=COMB6   CaseName=HT   ScaleFactor=1
 
TABLE:  "CONNECTIVITY - FRAME"
   Frame=1   JointI=19   JointJ=D1   IsCurved=No   GUID=d5a3c4b0-e270-4060-9d5b-3e911ba36011
   Frame=2   JointI=D1   JointJ=S1   IsCurved=No   GUID=1b346065-d533-4a07-befc-1b17d5cf6bf4
   Frame=3   JointI=16   JointJ=D3   IsCurved=No   GUID=6346dbfc-da28-40b5-8321-015e026f85ae
   Frame=4   JointI=D3   JointJ=S3   IsCurved=No   GUID=088e57bb-a4c0-4715-a305-cbaf42acccdd
   Frame=5   JointI=13   JointJ=D5   IsCurved=No   GUID=ae4054f5-97a3-4c9d-9488-e88cc85387dc
   Frame=6   JointI=D5   JointJ=S5   IsCurved=No   GUID=4dc31fe0-4403-4a84-a408-40bb0624f034
   Frame=7   JointI=S2   JointJ=D2   IsCurved=No   GUID=4e3f20a6-5afe-471e-b9be-cdde7b5f9dbf
   Frame=8   JointI=D2   JointJ=22   IsCurved=No   GUID=6be69b7c-2808-450a-bc16-563a9f0083cf
   Frame=9   JointI=S4   JointJ=D4   IsCurved=No   GUID=4863fc99-9600-45ab-acde-e76aaa1216a1
   Frame=10   JointI=D4   JointJ=25   IsCurved=No   GUID=b87c7ee4-7ff7-45dc-a323-ecbfc0d9c7b1
   Frame=11   JointI=S6   JointJ=D6   IsCurved=No   GUID=20b87fd9-a9eb-4af7-9016-704afc160c1b
   Frame=12   JointI=D6   JointJ=60   IsCurved=No   GUID=650a2de2-4914-4d41-bbea-c80a5728cf53
   Frame=13   JointI=S7   JointJ=D7   IsCurved=No   GUID=76bb3a1b-50dd-47b3-a536-a35f4feec1d0
   Frame=14   JointI=D7   JointJ=62   IsCurved=No   GUID=8029e3f9-9826-4c21-8a25-52d50658cad3
   Frame=15   JointI=S8   JointJ=D8   IsCurved=No   GUID=df0c352b-053d-4c17-acf8-b9db1e00ef49
   Frame=16   JointI=D8   JointJ=64   IsCurved=No   GUID=aefa85f2-c1d2-4365-9e4a-64324b8763d7
   Frame=17   JointI=S9   JointJ=D9   IsCurved=No   GUID=d04f6d49-50c2-404c-8449-c96a942f4c8a
   Frame=18   JointI=D9   JointJ=66   IsCurved=No   GUID=e5992fa4-5d2f-45af-90ae-ebeb760ec0a1
   Frame=19   JointI=67   JointJ=D10   IsCurved=No   GUID=26a43f2a-6ec8-45e2-8492-c2ae43bbb681
   Frame=20   JointI=D10   JointJ=S10   IsCurved=No   GUID=6de935c5-ac77-42a4-b52b-449af5ffb227
   Frame=21   JointI=69   JointJ=D11   IsCurved=No   GUID=f2cd27a5-563b-4595-bbc4-d11c0c8e2f35
   Frame=22   JointI=D11   JointJ=S11   IsCurved=No   GUID=d2f74475-f564-4b43-8282-70198f8f602b
   Frame=23   JointI=71   JointJ=D12   IsCurved=No   GUID=dc4e70d0-6238-4ed7-b22f-f39ce2f05628
   Frame=24   JointI=D12   JointJ=S12   IsCurved=No   GUID=8322c0da-6148-4fce-a9a1-fa226694b228
   Frame=25   JointI=S15   JointJ=D15   IsCurved=No   GUID=8c37e220-5e45-4574-8134-6e1c07b7e0a5
   Frame=26   JointI=D15   JointJ=74   IsCurved=No   GUID=5eed743d-2510-4292-849d-ccd08b64181a
   Frame=27   JointI=S16   JointJ=D16   IsCurved=No   GUID=17c580d9-dd6b-45ce-b50b-e63dd2be8c3e
   Frame=28   JointI=D16   JointJ=76   IsCurved=No   GUID=6aa9745d-fc4e-4cbf-82cc-3df6a844ebd3
   Frame=29   JointI=S13   JointJ=D13   IsCurved=No   GUID=d74e664a-1a85-498c-a917-5e7016113220
   Frame=30   JointI=D13   JointJ=78   IsCurved=No   GUID=36923d1e-6d50-415d-b4e2-2c0535a02504
   Frame=31   JointI=S14   JointJ=D14   IsCurved=No   GUID=19ca70c0-2a7e-4e1a-a6e7-a28ca20557da
   Frame=32   JointI=D14   JointJ=80   IsCurved=No   GUID=8df481d3-32cc-4d5e-9cd4-909e4fbb04d7
   Frame=33   JointI=81   JointJ=D17   IsCurved=No   GUID=b3f411c4-2939-4da6-a369-9e0d823f6250
   Frame=34   JointI=D17   JointJ=S17   IsCurved=No   GUID=3ffd05ac-255c-49a7-ae09-84f56537ee6b
   Frame=35   JointI=83   JointJ=D19   IsCurved=No   GUID=ee11b1c9-d74a-4e9a-9f5b-d44a0db68062
   Frame=36   JointI=D19   JointJ=S19   IsCurved=No   GUID=18d020f4-eb8c-41a8-86f4-9d11899597a5
   Frame=37   JointI=85   JointJ=D18   IsCurved=No   GUID=73d47fdc-f6eb-45ef-b5ea-942c82924165
   Frame=38   JointI=D18   JointJ=S18   IsCurved=No   GUID=9acfc6a8-ce9b-45a4-b1ec-27cdd75a844b
 
TABLE:  "CONNECTIVITY - SOLID"
   Solid=1   Joint1=1   Joint2=5   Joint3=88   Joint4=87   Joint5=151   Joint6=152   Joint7=153   Joint8=154
   Solid=2   Joint1=151   Joint2=152   Joint3=153   Joint4=154   Joint5=155   Joint6=156   Joint7=157   Joint8=158
   Solid=3   Joint1=155   Joint2=156   Joint3=157   Joint4=158   Joint5=159   Joint6=160   Joint7=161   Joint8=162
   Solid=4   Joint1=159   Joint2=160   Joint3=161   Joint4=162   Joint5=163   Joint6=164   Joint7=165   Joint8=166
   Solid=5   Joint1=88   Joint2=87   Joint3=29   Joint4=89   Joint5=153   Joint6=154   Joint7=167   Joint8=168
   Solid=6   Joint1=153   Joint2=154   Joint3=167   Joint4=168   Joint5=157   Joint6=158   Joint7=169   Joint8=170
   Solid=7   Joint1=157   Joint2=158   Joint3=169   Joint4=170   Joint5=161   Joint6=162   Joint7=171   Joint8=172
   Solid=8   Joint1=161   Joint2=162   Joint3=171   Joint4=172   Joint5=165   Joint6=166   Joint7=173   Joint8=174
   Solid=9   Joint1=29   Joint2=89   Joint3=31   Joint4=90   Joint5=167   Joint6=168   Joint7=175   Joint8=176
   Solid=10   Joint1=167   Joint2=168   Joint3=175   Joint4=176   Joint5=169   Joint6=170   Joint7=177   Joint8=178
   Solid=11   Joint1=169   Joint2=170   Joint3=177   Joint4=178   Joint5=171   Joint6=172   Joint7=179   Joint8=180
   Solid=12   Joint1=171   Joint2=172   Joint3=179   Joint4=180   Joint5=173   Joint6=174   Joint7=181   Joint8=182
   Solid=13   Joint1=31   Joint2=90   Joint3=37   Joint4=91   Joint5=175   Joint6=176   Joint7=183   Joint8=184
   Solid=14   Joint1=175   Joint2=176   Joint3=183   Joint4=184   Joint5=177   Joint6=178   Joint7=185   Joint8=186
   Solid=15   Joint1=177   Joint2=178   Joint3=185   Joint4=186   Joint5=179   Joint6=180   Joint7=187   Joint8=188
   Solid=16   Joint1=179   Joint2=180   Joint3=187   Joint4=188   Joint5=181   Joint6=182   Joint7=189   Joint8=190
   Solid=17   Joint1=37   Joint2=91   Joint3=42   Joint4=67   Joint5=183   Joint6=184   Joint7=191   Joint8=192
   Solid=18   Joint1=183   Joint2=184   Joint3=191   Joint4=192   Joint5=185   Joint6=186   Joint7=193   Joint8=194
   Solid=19   Joint1=185   Joint2=186   Joint3=193   Joint4=194   Joint5=187   Joint6=188   Joint7=195   Joint8=196
   Solid=20   Joint1=187   Joint2=188   Joint3=195   Joint4=196   Joint5=189   Joint6=190   Joint7=197   Joint8=198
# ... 380 like lines cut
 
TABLE:  "CONSTRAINT DEFINITIONS - BODY"
   Name=TRU   CoordSys=GLOBAL   UX=Yes   UY=Yes   UZ=Yes   RX=Yes   RY=Yes   RZ=Yes
 
TABLE:  "COORDINATE SYSTEMS"
   Name=GLOBAL   Type=Cartesian   X=0   Y=0   Z=0   AboutZ=0   AboutY=0   AboutX=0
 
TABLE:  "DATABASE DOCUMENTATION"
 
TABLE:  "DATABASE FORMAT TYPES"
   UnitsCurr=Yes   OverrideE=No
 
TABLE:  "FRAME AUTO MESH ASSIGNMENTS"
   Frame=1   AutoMesh=Yes   AtJoints=Yes   AtFrames=No   NumSegments=0   MaxLength=0   MaxDegrees=0
   Frame=2   AutoMesh=Yes   AtJoints=Yes   AtFrames=No   NumSegments=0   MaxLength=0   MaxDegrees=0
   Frame=3   AutoMesh=Yes   AtJoints=Yes   AtFrames=No   NumSegments=0   MaxLength=0   MaxDegrees=0
   Frame=4   AutoMesh=Yes   AtJoints=Yes   AtFrames=No   NumSegments=0   MaxLength=0   MaxDegrees=0
   Frame=5   AutoMesh=Yes   AtJoints=Yes   AtFrames=No   NumSegments=0   MaxLength=0   MaxDegrees=0
   Frame=6   AutoMesh=Yes   AtJoints=Yes   AtFrames=No   NumSegments=0   MaxLength=0   MaxDegrees=0
   Frame=7   AutoMesh=Yes   AtJoints=Yes   AtFrames=No   NumSegments=0   MaxLength=0   MaxDegrees=0
   Frame=8   AutoMesh=Yes   AtJoints=Yes   AtFrames=No   NumSegments=0   MaxLength=0   MaxDegrees=0
   Frame=9   AutoMesh=Yes   AtJoints=Yes   AtFrames=No   NumSegments=0   MaxLength=0   MaxDegrees=0
   Frame=10   AutoMesh=Yes   AtJoints=Yes   AtFrames=No   NumSegments=0   MaxLength=0   MaxDegrees=0
   Frame=11   AutoMesh=Yes   AtJoints=Yes   AtFrames=No   NumSegments=0   MaxLength=0   MaxDegrees=0
   Frame=12   AutoMesh=Yes   AtJoints=Yes   AtFrames=No   NumSegments=0   MaxLength=0   MaxDegrees=0
   Frame=13   AutoMesh=Yes   AtJoints=Yes   AtFrames=No   NumSegments=0   MaxLength=0   MaxDegrees=0
   Frame=14   AutoMesh=Yes   AtJoints=Yes   AtFrames=No   NumSegments=0   MaxLength=0   MaxDegrees=0
   Frame=15   AutoMesh=Yes   AtJoints=Yes   AtFrames=No   NumSegments=0   MaxLength=0   MaxDegrees=0
   Frame=16   AutoMesh=Yes   AtJoints=Yes   AtFrames=No   NumSegments=0   MaxLength=0   MaxDegrees=0
   Frame=17   AutoMesh=Yes   AtJoints=Yes   AtFrames=No   NumSegments=0   MaxLength=0   MaxDegrees=0
   Frame=18   AutoMesh=Yes   AtJoints=Yes   AtFrames=No   NumSegments=0   MaxLength=0   MaxDegrees=0
   Frame=19   AutoMesh=Yes   AtJoints=Yes   AtFrames=No   NumSegments=0   MaxLength=0   MaxDegrees=0
   Frame=20   AutoMesh=Yes   AtJoints=Yes   AtFrames=No   NumSegments=0   MaxLength=0   MaxDegrees=0
# ... 18 like lines cut
 
TABLE:  "FRAME DESIGN PROCEDURES"
   Frame=1   DesignProc="No Design"
   Frame=2   DesignProc="No Design"
   Frame=3   DesignProc="No Design"
   Frame=4   DesignProc="No Design"
   Frame=5   DesignProc="No Design"
   Frame=6   DesignProc="No Design"
   Frame=7   DesignProc="No Design"
   Frame=8   DesignProc="No Design"
   Frame=9   DesignProc="No Design"
   Frame=10   DesignProc="No Design"
   Frame=11   DesignProc="No Design"
   Frame=12   DesignProc="No Design"
   Frame=13   DesignProc="No Design"
   Frame=14   DesignProc="No Design"
   Frame=15   DesignProc="No Design"
   Frame=16   DesignProc="No Design"
   Frame=17   DesignProc="No Design"
   Frame=18   DesignProc="No Design"
   Frame=19   DesignProc="No Design"
   Frame=20   DesignProc="No Design"
# ... 18 like lines cut
 
TABLE:  "FRAME LOAD TRANSFER OPTIONS"
   Frame=1   Transfer=Yes
   Frame=2   Transfer=Yes
   Frame=3   Transfer=Yes
   Frame=4   Transfer=Yes
   Frame=5   Transfer=Yes
   Frame=6   Transfer=Yes
   Frame=7   Transfer=Yes
   Frame=8   Transfer=Yes
   Frame=9   Transfer=Yes
   Frame=10   Transfer=Yes
   Frame=11   Transfer=Yes
   Frame=12   Transfer=Yes
   Frame=13   Transfer=Yes
   Frame=14   Transfer=Yes
   Frame=15   Transfer=Yes
   Frame=16   Transfer=Yes
   Frame=17   Transfer=Yes
   Frame=18   Transfer=Yes
   Frame=19   Transfer=Yes
   Frame=20   Transfer=Yes
# ... 18 like lines cut
 
TABLE:  "FRAME OUTPUT STATION ASSIGNMENTS"
   Frame=1   StationType=MinNumSta   MinNumSta=3   AddAtElmInt=Yes   AddAtPtLoad=Yes
   Frame=2   StationType=MinNumSta   MinNumSta=3   AddAtElmInt=Yes   AddAtPtLoad=Yes
   Frame=3   StationType=MinNumSta   MinNumSta=3   AddAtElmInt=Yes   AddAtPtLoad=Yes
   Frame=4   StationType=MinNumSta   MinNumSta=3   AddAtElmInt=Yes   AddAtPtLoad=Yes
   Frame=5   StationType=MinNumSta   MinNumSta=3   AddAtElmInt=Yes   AddAtPtLoad=Yes
   Frame=6   StationType=MinNumSta   MinNumSta=3   AddAtElmInt=Yes   AddAtPtLoad=Yes
   Frame=7   StationType=MinNumSta   MinNumSta=3   AddAtElmInt=Yes   AddAtPtLoad=Yes
   Frame=8   StationType=MinNumSta   MinNumSta=3   AddAtElmInt=Yes   AddAtPtLoad=Yes
   Frame=9   StationType=MinNumSta   MinNumSta=3   AddAtElmInt=Yes   AddAtPtLoad=Yes
   Frame=10   StationType=MinNumSta   MinNumSta=3   AddAtElmInt=Yes   AddAtPtLoad=Yes
   Frame=11   StationType=MinNumSta   MinNumSta=3   AddAtElmInt=Yes   AddAtPtLoad=Yes
   Frame=12   StationType=MinNumSta   MinNumSta=3   AddAtElmInt=Yes   AddAtPtLoad=Yes
   Frame=13   StationType=MinNumSta   MinNumSta=3   AddAtElmInt=Yes   AddAtPtLoad=Yes
   Frame=14   StationType=MinNumSta   MinNumSta=3   AddAtElmInt=Yes   AddAtPtLoad=Yes
   Frame=15   StationType=MinNumSta   MinNumSta=3   AddAtElmInt=Yes   AddAtPtLoad=Yes
   Frame=16   StationType=MinNumSta   MinNumSta=3   AddAtElmInt=Yes   AddAtPtLoad=Yes
   Frame=17   StationType=MinNumSta   MinNumSta=3   AddAtElmInt=Yes   AddAtPtLoad=Yes
   Frame=18   StationType=MinNumSta   MinNumSta=3   AddAtElmInt=Yes   AddAtPtLoad=Yes
   Frame=19   StationType=MinNumSta   MinNumSta=3   AddAtElmInt=Yes   AddAtPtLoad=Yes
   Frame=20   StationType=MinNumSta   MinNumSta=3   AddAtElmInt=Yes   AddAtPtLoad=Yes
# ... 18 like lines cut
 
TABLE:  "FRAME SECTION ASSIGNMENTS"
   Frame=1   AutoSelect=N.A.   AnalSect=COC   MatProp=Default
   Frame=2   AutoSelect=N.A.   AnalSect=COC   MatProp=Default
   Frame=3   AutoSelect=N.A.   AnalSect=COC   MatProp=Default
   Frame=4   AutoSelect=N.A.   AnalSect=COC   MatProp=Default
   Frame=5   AutoSelect=N.A.   AnalSect=COC   MatProp=Default
   Frame=6   AutoSelect=N.A.   AnalSect=COC   MatProp=Default
   Frame=7   AutoSelect=N.A.   AnalSect=COC   MatProp=Default
   Frame=8   AutoSelect=N.A.   AnalSect=COC   MatProp=Default
   Frame=9   AutoSelect=N.A.   AnalSect=COC   MatProp=Default
   Frame=10   AutoSelect=N.A.   AnalSect=COC   MatProp=Default
   Frame=11   AutoSelect=N.A.   AnalSect=COC   MatProp=Default
   Frame=12   AutoSelect=N.A.   AnalSect=COC   MatProp=Default
   Frame=13   AutoSelect=N.A.   AnalSect=COC   MatProp=Default
   Frame=14   AutoSelect=N.A.   AnalSect=COC   MatProp=Default
   Frame=15   AutoSelect=N.A.   AnalSect=COC   MatProp=Default
   Frame=16   AutoSelect=N.A.   AnalSect=COC   MatProp=Default
   Frame=17   AutoSelect=N.A.   AnalSect=COC   MatProp=Default
   Frame=18   AutoSelect=N.A.   AnalSect=COC   MatProp=Default
   Frame=19   AutoSelect=N.A.   AnalSect=COC   MatProp=Default
   Frame=20   AutoSelect=N.A.   AnalSect=COC   MatProp=Default
# ... 18 like lines cut
 
TABLE:  "FRAME SECTION PROPERTIES 01 - GENERAL"
   SectionName=COC   Material=BTCTCOC   Shape=Pipe   t3=0.3   tw=0.06   Area=0.045238934211693   TorsConst=0.000692155693438903   I33=0.000346077846719452   I22=0.000346077846719452   I23=0   AS2=0.0235427106611872   AS3=0.0235427106611872 _
        S33Top=0.00230718564479634   S33Bot=0.00230718564479634   S22Left=0.00230718564479634   S22Right=0.00230718564479634   Z33=0.003528   Z22=0.003528   R33=0.0874642784226795   R22=0.0874642784226795   CGOffset3=0   CGOffset2=0 _
        EccV2=0   EccV3=0   Cw=0   Color=Green   FromFile=No   AMod=1   A2Mod=1   A3Mod=1   JMod=1   I2Mod=1   I3Mod=1   MMod=1   WMod=1
 
TABLE:  "FRAME SECTION PROPERTIES 13 - TIME DEPENDENT"
   SectionName=COC   TypeSize=Auto   AutoSFSize=1
 
TABLE:  "FUNCTION - PLOT FUNCTIONS"
   PlotFunc="Input Energy"   Type=Energy   Component=Input   Mode=All
 
TABLE:  "FUNCTION - POWER SPECTRAL DENSITY - USER"
   Name=UNIFPSD   Frequency=0   Value=1
   Name=UNIFPSD   Frequency=1   Value=1
 
TABLE:  "FUNCTION - RESPONSE SPECTRUM - USER"
   Name=UNIFRS   Period=0   Accel=1   FuncDamp=0
   Name=UNIFRS   Period=1   Accel=1
 
TABLE:  "FUNCTION - STEADY STATE - USER"
   Name=UNIFSS   Frequency=0   Value=1
   Name=UNIFSS   Frequency=1   Value=1
 
TABLE:  "FUNCTION - TIME HISTORY - USER"
   Name=RAMPTH   Time=0   Value=0
   Name=RAMPTH   Time=1   Value=1
   Name=RAMPTH   Time=4   Value=1
   Name=UNIFTH   Time=0   Value=1
   Name=UNIFTH   Time=1   Value=1
 
TABLE:  "GRID LINES"
   CoordSys=GLOBAL   AxisDir=X   XRYZCoord=0   LineType=Primary   LineColor=Gray8Dark   Visible=Yes   BubbleLoc=End   AllVisible=Yes   BubbleSize=96
   CoordSys=GLOBAL   AxisDir=X   XRYZCoord=0.9   LineType=Primary   LineColor=Gray8Dark   Visible=Yes   BubbleLoc=End
   CoordSys=GLOBAL   AxisDir=X   XRYZCoord=0.9   LineType=Primary   LineColor=Gray8Dark   Visible=Yes   BubbleLoc=End
   CoordSys=GLOBAL   AxisDir=X   XRYZCoord=1.5   LineType=Primary   LineColor=Gray8Dark   Visible=Yes   BubbleLoc=End
   CoordSys=GLOBAL   AxisDir=X   XRYZCoord=2.1   LineType=Primary   LineColor=Gray8Dark   Visible=Yes   BubbleLoc=End
   CoordSys=GLOBAL   AxisDir=X   XRYZCoord=3   LineType=Primary   LineColor=Gray8Dark   Visible=Yes   BubbleLoc=End
   CoordSys=GLOBAL   AxisDir=X   XRYZCoord=4.2   LineType=Primary   LineColor=Gray8Dark   Visible=Yes   BubbleLoc=End
   CoordSys=GLOBAL   AxisDir=X   XRYZCoord=4.2   LineType=Primary   LineColor=Gray8Dark   Visible=Yes   BubbleLoc=End
   CoordSys=GLOBAL   AxisDir=X   XRYZCoord=5.4   LineType=Primary   LineColor=Gray8Dark   Visible=Yes   BubbleLoc=End
   CoordSys=GLOBAL   AxisDir=X   XRYZCoord=6.3   LineType=Primary   LineColor=Gray8Dark   Visible=Yes   BubbleLoc=End
   CoordSys=GLOBAL   AxisDir=X   XRYZCoord=6.9   LineType=Primary   LineColor=Gray8Dark   Visible=Yes   BubbleLoc=End
   CoordSys=GLOBAL   AxisDir=X   XRYZCoord=7.5   LineType=Primary   LineColor=Gray8Dark   Visible=Yes   BubbleLoc=End
   CoordSys=GLOBAL   AxisDir=X   XRYZCoord=7.5   LineType=Primary   LineColor=Gray8Dark   Visible=Yes   BubbleLoc=End
   CoordSys=GLOBAL   AxisDir=X   XRYZCoord=8.4   LineType=Primary   LineColor=Gray8Dark   Visible=Yes   BubbleLoc=End
   CoordSys=GLOBAL   AxisDir=Y   XRYZCoord=0   LineType=Primary   LineColor=Gray8Dark   Visible=Yes   BubbleLoc=End
   CoordSys=GLOBAL   AxisDir=Y   XRYZCoord=0.9   LineType=Primary   LineColor=Gray8Dark   Visible=Yes   BubbleLoc=End
   CoordSys=GLOBAL   AxisDir=Y   XRYZCoord=1.8   LineType=Primary   LineColor=Gray8Dark   Visible=Yes   BubbleLoc=End
   CoordSys=GLOBAL   AxisDir=Y   XRYZCoord=2.7   LineType=Primary   LineColor=Gray8Dark   Visible=Yes   BubbleLoc=End
   CoordSys=GLOBAL   AxisDir=Y   XRYZCoord=3.3   LineType=Primary   LineColor=Gray8Dark   Visible=Yes   BubbleLoc=End
   CoordSys=GLOBAL   AxisDir=Y   XRYZCoord=4.8   LineType=Primary   LineColor=Gray8Dark   Visible=Yes   BubbleLoc=End
   CoordSys=GLOBAL   AxisDir=Y   XRYZCoord=6.3   LineType=Primary   LineColor=Gray8Dark   Visible=Yes   BubbleLoc=End
   CoordSys=GLOBAL   AxisDir=Y   XRYZCoord=6.3   LineType=Primary   LineColor=Gray8Dark   Visible=Yes   BubbleLoc=End
   CoordSys=GLOBAL   AxisDir=Y   XRYZCoord=6.9   LineType=Primary   LineColor=Gray8Dark   Visible=Yes   BubbleLoc=End
   CoordSys=GLOBAL   AxisDir=Y   XRYZCoord=6.9   LineType=Primary   LineColor=Gray8Dark   Visible=Yes   BubbleLoc=End
   CoordSys=GLOBAL   AxisDir=Y   XRYZCoord=8.7   LineType=Primary   LineColor=Gray8Dark   Visible=Yes   BubbleLoc=End
   CoordSys=GLOBAL   AxisDir=Y   XRYZCoord=9.6   LineType=Primary   LineColor=Gray8Dark   Visible=Yes   BubbleLoc=End
   CoordSys=GLOBAL   AxisDir=Z   XRYZCoord=-1   LineType=Primary   LineColor=Gray8Dark   Visible=Yes   BubbleLoc=End
   CoordSys=GLOBAL   AxisDir=Z   XRYZCoord=-0.5   LineType=Primary   LineColor=Gray8Dark   Visible=Yes   BubbleLoc=End
   CoordSys=GLOBAL   AxisDir=Z   XRYZCoord=0   LineType=Primary   LineColor=Gray8Dark   Visible=Yes   BubbleLoc=End
   CoordSys=GLOBAL   AxisDir=Z   XRYZCoord=0.5   LineType=Primary   LineColor=Gray8Dark   Visible=Yes   BubbleLoc=End
   CoordSys=GLOBAL   AxisDir=Z   XRYZCoord=1   LineType=Primary   LineColor=Gray8Dark   Visible=Yes   BubbleLoc=End
   CoordSys=GLOBAL   AxisDir=Z   XRYZCoord=1.5   LineType=Primary   LineColor=Gray8Dark   Visible=Yes   BubbleLoc=End
   CoordSys=GLOBAL   AxisDir=Z   XRYZCoord=2   LineType=Primary   LineColor=Gray8Dark   Visible=Yes   BubbleLoc=End
 
TABLE:  "GROUPS 1 - DEFINITIONS"
   GroupName=ALL   Selection=Yes   SectionCut=Yes   Steel=Yes   Concrete=Yes   Aluminum=Yes   ColdFormed=Yes   Stage=Yes   Bridge=Yes   AutoSeismic=No   AutoWind=No   SelDesSteel=No   SelDesAlum=No   SelDesCold=No   MassWeight=Yes   Color=Red
   GroupName=Restrains   Selection=Yes   SectionCut=Yes   Steel=Yes   Concrete=Yes   Aluminum=Yes   ColdFormed=Yes   Stage=Yes   Bridge=Yes   AutoSeismic=No   AutoWind=No   SelDesSteel=No   SelDesAlum=No   SelDesCold=No   MassWeight=Yes   Color=Red
   GroupName=Mooring   Selection=Yes   SectionCut=Yes   Steel=Yes   Concrete=Yes   Aluminum=Yes   ColdFormed=Yes   Stage=Yes   Bridge=Yes   AutoSeismic=No   AutoWind=No   SelDesSteel=No   SelDesAlum=No   SelDesCold=No   MassWeight=Yes   Color=Red
   GroupName=Piles   Selection=Yes   SectionCut=Yes   Steel=Yes   Concrete=Yes   Aluminum=Yes   ColdFormed=Yes   Stage=Yes   Bridge=Yes   AutoSeismic=No   AutoWind=No   SelDesSteel=No   SelDesAlum=No   SelDesCold=No   MassWeight=Yes   Color=Magenta
   GroupName=Top_points   Selection=Yes   SectionCut=Yes   Steel=Yes   Concrete=Yes   Aluminum=Yes   ColdFormed=Yes   Stage=Yes   Bridge=Yes   AutoSeismic=No   AutoWind=No   SelDesSteel=No   SelDesAlum=No   SelDesCold=No   MassWeight=Yes   Color=Yellow
 
TABLE:  "GROUPS 2 - ASSIGNMENTS"
   GroupName=Restrains   ObjectType=Joint   ObjectLabel=S1
   GroupName=Restrains   ObjectType=Joint   ObjectLabel=S3
   GroupName=Restrains   ObjectType=Joint   ObjectLabel=S5
   GroupName=Restrains   ObjectType=Joint   ObjectLabel=S2
   GroupName=Restrains   ObjectType=Joint   ObjectLabel=S4
   GroupName=Restrains   ObjectType=Joint   ObjectLabel=S6
   GroupName=Restrains   ObjectType=Joint   ObjectLabel=S7
   GroupName=Restrains   ObjectType=Joint   ObjectLabel=S8
   GroupName=Restrains   ObjectType=Joint   ObjectLabel=S9
   GroupName=Restrains   ObjectType=Joint   ObjectLabel=S10
   GroupName=Restrains   ObjectType=Joint   ObjectLabel=S11
   GroupName=Restrains   ObjectType=Joint   ObjectLabel=S12
   GroupName=Restrains   ObjectType=Joint   ObjectLabel=S15
   GroupName=Restrains   ObjectType=Joint   ObjectLabel=S16
   GroupName=Restrains   ObjectType=Joint   ObjectLabel=S13
   GroupName=Restrains   ObjectType=Joint   ObjectLabel=S14
   GroupName=Restrains   ObjectType=Joint   ObjectLabel=S17
   GroupName=Restrains   ObjectType=Joint   ObjectLabel=S19
   GroupName=Restrains   ObjectType=Joint   ObjectLabel=S18
   GroupName=Mooring   ObjectType=Joint   ObjectLabel=374
   GroupName=Piles   ObjectType=Joint   ObjectLabel=S1
   GroupName=Piles   ObjectType=Joint   ObjectLabel=S3
   GroupName=Piles   ObjectType=Joint   ObjectLabel=S5
   GroupName=Piles   ObjectType=Joint   ObjectLabel=S2
   GroupName=Piles   ObjectType=Joint   ObjectLabel=S4
   GroupName=Piles   ObjectType=Joint   ObjectLabel=S6
   GroupName=Piles   ObjectType=Joint   ObjectLabel=S7
   GroupName=Piles   ObjectType=Joint   ObjectLabel=S8
   GroupName=Piles   ObjectType=Joint   ObjectLabel=S9
   GroupName=Piles   ObjectType=Joint   ObjectLabel=S10
   GroupName=Piles   ObjectType=Joint   ObjectLabel=S11
   GroupName=Piles   ObjectType=Joint   ObjectLabel=S12
   GroupName=Piles   ObjectType=Joint   ObjectLabel=S15
   GroupName=Piles   ObjectType=Joint   ObjectLabel=S16
   GroupName=Piles   ObjectType=Joint   ObjectLabel=S13
   GroupName=Piles   ObjectType=Joint   ObjectLabel=S14
   GroupName=Piles   ObjectType=Joint   ObjectLabel=S17
   GroupName=Piles   ObjectType=Joint   ObjectLabel=S19
   GroupName=Piles   ObjectType=Joint   ObjectLabel=S18
   GroupName=Piles   ObjectType=Joint   ObjectLabel=D1
   GroupName=Piles   ObjectType=Joint   ObjectLabel=D3
   GroupName=Piles   ObjectType=Joint   ObjectLabel=D5
   GroupName=Piles   ObjectType=Joint   ObjectLabel=D2
   GroupName=Piles   ObjectType=Joint   ObjectLabel=D4
   GroupName=Piles   ObjectType=Joint   ObjectLabel=D6
   GroupName=Piles   ObjectType=Joint   ObjectLabel=D7
   GroupName=Piles   ObjectType=Joint   ObjectLabel=D8
   GroupName=Piles   ObjectType=Joint   ObjectLabel=D9
   GroupName=Piles   ObjectType=Joint   ObjectLabel=D10
   GroupName=Piles   ObjectType=Joint   ObjectLabel=D11
   GroupName=Piles   ObjectType=Joint   ObjectLabel=D12
   GroupName=Piles   ObjectType=Joint   ObjectLabel=D15
   GroupName=Piles   ObjectType=Joint   ObjectLabel=D16
   GroupName=Piles   ObjectType=Joint   ObjectLabel=D13
   GroupName=Piles   ObjectType=Joint   ObjectLabel=D14
   GroupName=Piles   ObjectType=Joint   ObjectLabel=D17
   GroupName=Piles   ObjectType=Joint   ObjectLabel=D19
   GroupName=Piles   ObjectType=Joint   ObjectLabel=D18
   GroupName=Piles   ObjectType=Frame   ObjectLabel=1
   GroupName=Piles   ObjectType=Frame   ObjectLabel=2
   GroupName=Piles   ObjectType=Frame   ObjectLabel=3
   GroupName=Piles   ObjectType=Frame   ObjectLabel=4
   GroupName=Piles   ObjectType=Frame   ObjectLabel=5
   GroupName=Piles   ObjectType=Frame   ObjectLabel=6
   GroupName=Piles   ObjectType=Frame   ObjectLabel=7
   GroupName=Piles   ObjectType=Frame   ObjectLabel=8
   GroupName=Piles   ObjectType=Frame   ObjectLabel=9
   GroupName=Piles   ObjectType=Frame   ObjectLabel=10
   GroupName=Piles   ObjectType=Frame   ObjectLabel=11
   GroupName=Piles   ObjectType=Frame   ObjectLabel=12
   GroupName=Piles   ObjectType=Frame   ObjectLabel=13
   GroupName=Piles   ObjectType=Frame   ObjectLabel=14
   GroupName=Piles   ObjectType=Frame   ObjectLabel=15
   GroupName=Piles   ObjectType=Frame   ObjectLabel=16
   GroupName=Piles   ObjectType=Frame   ObjectLabel=17
   GroupName=Piles   ObjectType=Frame   ObjectLabel=18
   GroupName=Piles   ObjectType=Frame   ObjectLabel=19
   GroupName=Piles   ObjectType=Frame   ObjectLabel=20
# ... 18 like lines cut
   GroupName=Top_points   ObjectType=Joint   ObjectLabel=163
   GroupName=Top_points   ObjectType=Joint   ObjectLabel=164
   GroupName=Top_points   ObjectType=Joint   ObjectLabel=165
   GroupName=Top_points   ObjectType=Joint   ObjectLabel=166
   GroupName=Top_points   ObjectType=Joint   ObjectLabel=173
   GroupName=Top_points   ObjectType=Joint   ObjectLabel=174
   GroupName=Top_points   ObjectType=Joint   ObjectLabel=181
   GroupName=Top_points   ObjectType=Joint   ObjectLabel=182
   GroupName=Top_points   ObjectType=Joint   ObjectLabel=189
   GroupName=Top_points   ObjectType=Joint   ObjectLabel=190
   GroupName=Top_points   ObjectType=Joint   ObjectLabel=197
   GroupName=Top_points   ObjectType=Joint   ObjectLabel=198
   GroupName=Top_points   ObjectType=Joint   ObjectLabel=205
   GroupName=Top_points   ObjectType=Joint   ObjectLabel=206
   GroupName=Top_points   ObjectType=Joint   ObjectLabel=213
   GroupName=Top_points   ObjectType=Joint   ObjectLabel=214
   GroupName=Top_points   ObjectType=Joint   ObjectLabel=221
   GroupName=Top_points   ObjectType=Joint   ObjectLabel=222
   GroupName=Top_points   ObjectType=Joint   ObjectLabel=229
   GroupName=Top_points   ObjectType=Joint   ObjectLabel=230
# ... 90 like lines cut
   GroupName=Top_points   ObjectType=Solid   ObjectLabel=4
   GroupName=Top_points   ObjectType=Solid   ObjectLabel=8
   GroupName=Top_points   ObjectType=Solid   ObjectLabel=12
   GroupName=Top_points   ObjectType=Solid   ObjectLabel=16
   GroupName=Top_points   ObjectType=Solid   ObjectLabel=20
   GroupName=Top_points   ObjectType=Solid   ObjectLabel=24
   GroupName=Top_points   ObjectType=Solid   ObjectLabel=28
   GroupName=Top_points   ObjectType=Solid   ObjectLabel=32
   GroupName=Top_points   ObjectType=Solid   ObjectLabel=36
   GroupName=Top_points   ObjectType=Solid   ObjectLabel=40
   GroupName=Top_points   ObjectType=Solid   ObjectLabel=44
   GroupName=Top_points   ObjectType=Solid   ObjectLabel=48
   GroupName=Top_points   ObjectType=Solid   ObjectLabel=52
   GroupName=Top_points   ObjectType=Solid   ObjectLabel=56
   GroupName=Top_points   ObjectType=Solid   ObjectLabel=60
   GroupName=Top_points   ObjectType=Solid   ObjectLabel=64
   GroupName=Top_points   ObjectType=Solid   ObjectLabel=68
   GroupName=Top_points   ObjectType=Solid   ObjectLabel=72
   GroupName=Top_points   ObjectType=Solid   ObjectLabel=76
   GroupName=Top_points   ObjectType=Solid   ObjectLabel=80
# ... 70 like lines cut
 
TABLE:  "JOINT CONSTRAINT ASSIGNMENTS"
   Joint=1   Constraint=TRU
   Joint=2   Constraint=TRU
   Joint=3   Constraint=TRU
   Joint=4   Constraint=TRU
   Joint=5   Constraint=TRU
   Joint=6   Constraint=TRU
   Joint=7   Constraint=TRU
   Joint=8   Constraint=TRU
   Joint=9   Constraint=TRU
   Joint=10   Constraint=TRU
   Joint=11   Constraint=TRU
   Joint=12   Constraint=TRU
   Joint=13   Constraint=TRU
   Joint=14   Constraint=TRU
   Joint=15   Constraint=TRU
   Joint=16   Constraint=TRU
   Joint=17   Constraint=TRU
   Joint=18   Constraint=TRU
   Joint=19   Constraint=TRU
   Joint=20   Constraint=TRU
# ... 596 like lines cut
 
TABLE:  "JOINT COORDINATES"
   Joint=1   CoordSys=GLOBAL   CoordType=Cartesian   XorR=0   Y=0   Z=0   SpecialJt=No
   Joint=2   CoordSys=GLOBAL   CoordType=Cartesian   XorR=0   Y=9.6   Z=0   SpecialJt=No
   Joint=3   CoordSys=GLOBAL   CoordType=Cartesian   XorR=8.4   Y=9.6   Z=0   SpecialJt=No
   Joint=4   CoordSys=GLOBAL   CoordType=Cartesian   XorR=8.4   Y=0   Z=0   SpecialJt=No
   Joint=5   CoordSys=GLOBAL   CoordType=Cartesian   XorR=0.9   Y=0   Z=0   SpecialJt=No
   Joint=6   CoordSys=GLOBAL   CoordType=Cartesian   XorR=0.9   Y=9.6   Z=0   SpecialJt=No
   Joint=7   CoordSys=GLOBAL   CoordType=Cartesian   XorR=8.4   Y=0.9   Z=-1   SpecialJt=No
   Joint=8   CoordSys=GLOBAL   CoordType=Cartesian   XorR=0   Y=0.9   Z=-1   SpecialJt=No
   Joint=9   CoordSys=GLOBAL   CoordType=Cartesian   XorR=8.4   Y=0   Z=-1   SpecialJt=No
   Joint=10   CoordSys=GLOBAL   CoordType=Cartesian   XorR=0   Y=0   Z=-1   SpecialJt=No
   Joint=11   CoordSys=GLOBAL   CoordType=Cartesian   XorR=8.4   Y=1.8   Z=-1   SpecialJt=No
   Joint=12   CoordSys=GLOBAL   CoordType=Cartesian   XorR=0   Y=1.8   Z=-1   SpecialJt=No
   Joint=13   CoordSys=GLOBAL   CoordType=Cartesian   XorR=7.5   Y=0.9   Z=-1   SpecialJt=No
   Joint=14   CoordSys=GLOBAL   CoordType=Cartesian   XorR=7.5   Y=0   Z=-1   SpecialJt=No
   Joint=15   CoordSys=GLOBAL   CoordType=Cartesian   XorR=7.5   Y=1.8   Z=-1   SpecialJt=No
   Joint=16   CoordSys=GLOBAL   CoordType=Cartesian   XorR=4.2   Y=0.9   Z=-1   SpecialJt=No
   Joint=17   CoordSys=GLOBAL   CoordType=Cartesian   XorR=4.2   Y=0   Z=-1   SpecialJt=No
   Joint=18   CoordSys=GLOBAL   CoordType=Cartesian   XorR=4.2   Y=1.8   Z=-1   SpecialJt=No
   Joint=19   CoordSys=GLOBAL   CoordType=Cartesian   XorR=0.9   Y=0.9   Z=-1   SpecialJt=No
   Joint=20   CoordSys=GLOBAL   CoordType=Cartesian   XorR=0.9   Y=0   Z=-1   SpecialJt=No
# ... 60 like lines cut
   Joint=D1   CoordSys=GLOBAL   CoordType=Cartesian   XorR=0.9   Y=0.9   Z=-13.4180229476075   SpecialJt=No   GUID=1287e944-0a5e-4987-81fa-876dc6fd44e8
   Joint=D2   CoordSys=GLOBAL   CoordType=Cartesian   XorR=2.1   Y=2.44026618042919   Z=-13.3221294434335   SpecialJt=No   GUID=6ec7ec20-44d1-4aef-9913-d92000318336
   Joint=D3   CoordSys=GLOBAL   CoordType=Cartesian   XorR=4.2   Y=0.9   Z=-13.4180229476075   SpecialJt=No   GUID=575f160a-2f31-4263-922d-1d02a98f1884
   Joint=D4   CoordSys=GLOBAL   CoordType=Cartesian   XorR=6.3   Y=2.44026618042919   Z=-13.3221294434335   SpecialJt=No   GUID=1ecb7f93-b621-4c1e-a61b-e95e9e37afdb
   Joint=D5   CoordSys=GLOBAL   CoordType=Cartesian   XorR=7.5   Y=0.9   Z=-13.4180229476075   SpecialJt=No   GUID=ad3b6e0b-586a-4056-918d-0b49efc50095
   Joint=D6   CoordSys=GLOBAL   CoordType=Cartesian   XorR=3   Y=1.0356990849816   Z=-13.3144073201472   SpecialJt=No   GUID=590a2749-1398-4cda-afee-099d0b96b46d
   Joint=D7   CoordSys=GLOBAL   CoordType=Cartesian   XorR=5.4   Y=1.0356990849816   Z=-13.3144073201472   SpecialJt=No   GUID=80de9f52-e6f2-47f9-b86b-cbaf7b56e8fd
   Joint=D8   CoordSys=GLOBAL   CoordType=Cartesian   XorR=0.6678495424908   Y=1.85867312805238   Z=-13.3144073201472   SpecialJt=No   GUID=9fe290e2-09c1-43be-a53b-633a0470b813
   Joint=D9   CoordSys=GLOBAL   CoordType=Cartesian   XorR=7.7321504575092   Y=1.85867312805238   Z=-13.3144073201472   SpecialJt=No   GUID=1f1632e8-3d50-49b5-9f9a-dff23d97d520
   Joint=S1   CoordSys=GLOBAL   CoordType=Cartesian   XorR=0.9   Y=0.9   Z=-16.8   SpecialJt=No
   Joint=S2   CoordSys=GLOBAL   CoordType=Cartesian   XorR=2.1   Y=2.85974880650949   Z=-16.6779904520759   SpecialJt=No
   Joint=S3   CoordSys=GLOBAL   CoordType=Cartesian   XorR=4.2   Y=0.9   Z=-16.8   SpecialJt=No
   Joint=S4   CoordSys=GLOBAL   CoordType=Cartesian   XorR=6.3   Y=2.85974880650949   Z=-16.6779904520759   SpecialJt=No
   Joint=S5   CoordSys=GLOBAL   CoordType=Cartesian   XorR=7.5   Y=0.9   Z=-16.8   SpecialJt=No
   Joint=S6   CoordSys=GLOBAL   CoordType=Cartesian   XorR=3   Y=0.616216458901298   Z=-16.6702683287896   SpecialJt=No
   Joint=S7   CoordSys=GLOBAL   CoordType=Cartesian   XorR=5.4   Y=0.616216458901298   Z=-16.6702683287896   SpecialJt=No
   Joint=S8   CoordSys=GLOBAL   CoordType=Cartesian   XorR=0.458108229450648   Y=1.49539051742063   Z=-16.6702683287896   SpecialJt=No
   Joint=S9   CoordSys=GLOBAL   CoordType=Cartesian   XorR=7.94189177054935   Y=1.49539051742063   Z=-16.6702683287896   SpecialJt=No
   Joint=100   CoordSys=GLOBAL   CoordType=Cartesian   XorR=2.1   Y=0   Z=0   SpecialJt=No
   Joint=101   CoordSys=GLOBAL   CoordType=Cartesian   XorR=2.1   Y=0.9   Z=0   SpecialJt=No
   Joint=102   CoordSys=GLOBAL   CoordType=Cartesian   XorR=2.1   Y=1.8   Z=0   SpecialJt=No
   Joint=103   CoordSys=GLOBAL   CoordType=Cartesian   XorR=2.1   Y=2.7   Z=0   SpecialJt=No
   Joint=104   CoordSys=GLOBAL   CoordType=Cartesian   XorR=2.1   Y=3.3   Z=0   SpecialJt=No
   Joint=105   CoordSys=GLOBAL   CoordType=Cartesian   XorR=2.1   Y=4.8   Z=0   SpecialJt=No
   Joint=106   CoordSys=GLOBAL   CoordType=Cartesian   XorR=2.1   Y=6.3   Z=0   SpecialJt=No
   Joint=107   CoordSys=GLOBAL   CoordType=Cartesian   XorR=2.1   Y=6.9   Z=0   SpecialJt=No
   Joint=108   CoordSys=GLOBAL   CoordType=Cartesian   XorR=2.1   Y=8.7   Z=0   SpecialJt=No
   Joint=109   CoordSys=GLOBAL   CoordType=Cartesian   XorR=2.1   Y=9.6   Z=0   SpecialJt=No
   Joint=110   CoordSys=GLOBAL   CoordType=Cartesian   XorR=3   Y=0.9   Z=0   SpecialJt=No
   Joint=111   CoordSys=GLOBAL   CoordType=Cartesian   XorR=3   Y=1.8   Z=0   SpecialJt=No
   Joint=112   CoordSys=GLOBAL   CoordType=Cartesian   XorR=3   Y=3.3   Z=0   SpecialJt=No
   Joint=113   CoordSys=GLOBAL   CoordType=Cartesian   XorR=3   Y=4.8   Z=0   SpecialJt=No
   Joint=114   CoordSys=GLOBAL   CoordType=Cartesian   XorR=3   Y=6.3   Z=0   SpecialJt=No
   Joint=115   CoordSys=GLOBAL   CoordType=Cartesian   XorR=3   Y=8.7   Z=0   SpecialJt=No
   Joint=116   CoordSys=GLOBAL   CoordType=Cartesian   XorR=4.2   Y=0.9   Z=0   SpecialJt=No
   Joint=117   CoordSys=GLOBAL   CoordType=Cartesian   XorR=4.2   Y=1.8   Z=0   SpecialJt=No
   Joint=118   CoordSys=GLOBAL   CoordType=Cartesian   XorR=4.2   Y=2.7   Z=0   SpecialJt=No
   Joint=119   CoordSys=GLOBAL   CoordType=Cartesian   XorR=4.2   Y=3.3   Z=0   SpecialJt=No
# ... 516 like lines cut
   Joint=D10   CoordSys=GLOBAL   CoordType=Cartesian   XorR=0.9   Y=4.8   Z=-13.4180229476075   SpecialJt=No   GUID=ac497b8d-e49a-447c-8844-1268f44fca4a
   Joint=D11   CoordSys=GLOBAL   CoordType=Cartesian   XorR=4.2   Y=4.8   Z=-13.4180229476075   SpecialJt=No   GUID=fa75584a-65a5-4e5b-9d43-41edf42d9d5c
   Joint=D12   CoordSys=GLOBAL   CoordType=Cartesian   XorR=7.5   Y=4.8   Z=-13.4180229476075   SpecialJt=No   GUID=c1e9a09f-cf49-468b-9e42-7d5a2e19d465
   Joint=D13   CoordSys=GLOBAL   CoordType=Cartesian   XorR=0.667849542490801   Y=7.74132687194762   Z=-13.3144073201472   SpecialJt=No   GUID=9c9d31f4-00dc-46fa-92a8-6e6238d32cec
   Joint=D14   CoordSys=GLOBAL   CoordType=Cartesian   XorR=7.7321504575092   Y=7.74132687194762   Z=-13.3144073201472   SpecialJt=No   GUID=1e30eb9b-5f25-438f-ae85-6e6abb649a4e
   Joint=D15   CoordSys=GLOBAL   CoordType=Cartesian   XorR=3   Y=8.5643009150184   Z=-13.3144073201472   SpecialJt=No   GUID=97c2b86a-ee67-4d6e-81a0-f6ca2c10f3c4
   Joint=D16   CoordSys=GLOBAL   CoordType=Cartesian   XorR=5.4   Y=8.5643009150184   Z=-13.3144073201472   SpecialJt=No   GUID=abfd249f-5e6b-4936-9a62-97ef83145189
   Joint=D17   CoordSys=GLOBAL   CoordType=Cartesian   XorR=0.9   Y=8.7   Z=-13.4180229476075   SpecialJt=No   GUID=68938c85-0ff9-4666-9655-39f3382c25de
   Joint=D18   CoordSys=GLOBAL   CoordType=Cartesian   XorR=4.2   Y=8.7   Z=-13.4180229476075   SpecialJt=No   GUID=a9ca06f9-20b7-4d9a-b063-e1450dc47dcd
   Joint=D19   CoordSys=GLOBAL   CoordType=Cartesian   XorR=7.5   Y=8.7   Z=-13.4180229476075   SpecialJt=No   GUID=b4cf53c9-cd9c-468e-816c-111382efad6e
   Joint=S10   CoordSys=GLOBAL   CoordType=Cartesian   XorR=0.9   Y=4.8   Z=-16.8   SpecialJt=No
   Joint=S11   CoordSys=GLOBAL   CoordType=Cartesian   XorR=4.2   Y=4.8   Z=-16.8   SpecialJt=No
   Joint=S12   CoordSys=GLOBAL   CoordType=Cartesian   XorR=7.5   Y=4.8   Z=-16.8   SpecialJt=No
   Joint=S13   CoordSys=GLOBAL   CoordType=Cartesian   XorR=0.458108229450649   Y=8.10460948257937   Z=-16.6702683287896   SpecialJt=No
   Joint=S14   CoordSys=GLOBAL   CoordType=Cartesian   XorR=7.94189177054935   Y=8.10460948257937   Z=-16.6702683287896   SpecialJt=No
   Joint=S15   CoordSys=GLOBAL   CoordType=Cartesian   XorR=3   Y=8.9837835410987   Z=-16.6702683287896   SpecialJt=No
   Joint=S16   CoordSys=GLOBAL   CoordType=Cartesian   XorR=5.4   Y=8.9837835410987   Z=-16.6702683287896   SpecialJt=No
   Joint=S17   CoordSys=GLOBAL   CoordType=Cartesian   XorR=0.9   Y=8.7   Z=-16.8   SpecialJt=No
   Joint=S18   CoordSys=GLOBAL   CoordType=Cartesian   XorR=4.2   Y=8.7   Z=-16.8   SpecialJt=No
   Joint=S19   CoordSys=GLOBAL   CoordType=Cartesian   XorR=7.5   Y=8.7   Z=-16.8   SpecialJt=No
 
TABLE:  "JOINT LOADS - FORCE"
   Joint=271   LoadPat=VA   CoordSys=GLOBAL   F1=-22.68   F2=45.36   F3=0   M1=0   M2=0   M3=0   GUID=9a6b5264-beff-43cd-990d-0c7c12036990
   Joint=374   LoadPat=NEO   CoordSys=GLOBAL   F1=10.1002888839631   F2=-12.0397890815701   F3=7.26037928862363   M1=0   M2=0   M3=0   GUID=87e957c1-ddbd-466f-b173-5ff9ae93800a
 
TABLE:  "JOINT PATTERN DEFINITIONS"
   Pattern=DEFAULT
   Pattern=ald
 
TABLE:  "JOINT RESTRAINT ASSIGNMENTS"
   Joint=D1   U1=Yes   U2=Yes   U3=No   R1=Yes   R2=Yes   R3=Yes
   Joint=D2   U1=Yes   U2=Yes   U3=No   R1=Yes   R2=Yes   R3=Yes
   Joint=D3   U1=Yes   U2=Yes   U3=No   R1=Yes   R2=Yes   R3=Yes
   Joint=D4   U1=Yes   U2=Yes   U3=No   R1=Yes   R2=Yes   R3=Yes
   Joint=D5   U1=Yes   U2=Yes   U3=No   R1=Yes   R2=Yes   R3=Yes
   Joint=D6   U1=Yes   U2=Yes   U3=No   R1=Yes   R2=Yes   R3=Yes
   Joint=D7   U1=Yes   U2=Yes   U3=No   R1=Yes   R2=Yes   R3=Yes
   Joint=D8   U1=Yes   U2=Yes   U3=No   R1=Yes   R2=Yes   R3=Yes
   Joint=D9   U1=Yes   U2=Yes   U3=No   R1=Yes   R2=Yes   R3=Yes
   Joint=S1   U1=No   U2=No   U3=Yes   R1=No   R2=No   R3=No
   Joint=S2   U1=No   U2=No   U3=Yes   R1=No   R2=No   R3=No
   Joint=S3   U1=No   U2=No   U3=Yes   R1=No   R2=No   R3=No
   Joint=S4   U1=No   U2=No   U3=Yes   R1=No   R2=No   R3=No
   Joint=S5   U1=No   U2=No   U3=Yes   R1=No   R2=No   R3=No
   Joint=S6   U1=No   U2=No   U3=Yes   R1=No   R2=No   R3=No
   Joint=S7   U1=No   U2=No   U3=Yes   R1=No   R2=No   R3=No
   Joint=S8   U1=No   U2=No   U3=Yes   R1=No   R2=No   R3=No
   Joint=S9   U1=No   U2=No   U3=Yes   R1=No   R2=No   R3=No
   Joint=D10   U1=Yes   U2=Yes   U3=No   R1=Yes   R2=Yes   R3=Yes
   Joint=D11   U1=Yes   U2=Yes   U3=No   R1=Yes   R2=Yes   R3=Yes
   Joint=D12   U1=Yes   U2=Yes   U3=No   R1=Yes   R2=Yes   R3=Yes
   Joint=D13   U1=Yes   U2=Yes   U3=No   R1=Yes   R2=Yes   R3=Yes
   Joint=D14   U1=Yes   U2=Yes   U3=No   R1=Yes   R2=Yes   R3=Yes
   Joint=D15   U1=Yes   U2=Yes   U3=No   R1=Yes   R2=Yes   R3=Yes
   Joint=D16   U1=Yes   U2=Yes   U3=No   R1=Yes   R2=Yes   R3=Yes
   Joint=D17   U1=Yes   U2=Yes   U3=No   R1=Yes   R2=Yes   R3=Yes
   Joint=D18   U1=Yes   U2=Yes   U3=No   R1=Yes   R2=Yes   R3=Yes
   Joint=D19   U1=Yes   U2=Yes   U3=No   R1=Yes   R2=Yes   R3=Yes
   Joint=S10   U1=No   U2=No   U3=Yes   R1=No   R2=No   R3=No
   Joint=S11   U1=No   U2=No   U3=Yes   R1=No   R2=No   R3=No
   Joint=S12   U1=No   U2=No   U3=Yes   R1=No   R2=No   R3=No
   Joint=S13   U1=No   U2=No   U3=Yes   R1=No   R2=No   R3=No
   Joint=S14   U1=No   U2=No   U3=Yes   R1=No   R2=No   R3=No
   Joint=S15   U1=No   U2=No   U3=Yes   R1=No   R2=No   R3=No
   Joint=S16   U1=No   U2=No   U3=Yes   R1=No   R2=No   R3=No
   Joint=S17   U1=No   U2=No   U3=Yes   R1=No   R2=No   R3=No
   Joint=S18   U1=No   U2=No   U3=Yes   R1=No   R2=No   R3=No
   Joint=S19   U1=No   U2=No   U3=Yes   R1=No   R2=No   R3=No
 
TABLE:  "LINK PROPERTY DEFINITIONS 01 - GENERAL"
   Link=LIN1   LinkType=Linear   Mass=0   Weight=0   RotInert1=0   RotInert2=0   RotInert3=0   DefLength=1   DefArea=1   PDM2I=0   PDM2J=0   PDM3I=0   PDM3J=0   StiffDFact=1   Color=Red
 
TABLE:  "LINK PROPERTY DEFINITIONS 02 - LINEAR"
   Link=LIN1   DOF=U1   Fixed=No   TransKE=1   TransCE=0
 
TABLE:  "LOAD CASE DEFINITIONS"
   Case=DEAD   Type=LinStatic   InitialCond=Zero   DesTypeOpt="Prog Det"   DesignType=Dead   DesActOpt="Prog Det"   DesignAct=Non-Composite   AutoType=None   RunCase=Yes
   Case=VA   Type=LinStatic   InitialCond=Zero   DesTypeOpt="Prog Det"   DesignType=Live   DesActOpt="Prog Det"   DesignAct="Short-Term Composite"   AutoType=None   RunCase=Yes
   Case=NEO   Type=LinStatic   InitialCond=Zero   DesTypeOpt="Prog Det"   DesignType=Live   DesActOpt="Prog Det"   DesignAct="Short-Term Composite"   AutoType=None   RunCase=Yes   GUID=03696cf2-188e-4dc6-8a72-9486a5121fe3
   Case=HT   Type=LinStatic   InitialCond=Zero   DesTypeOpt="Prog Det"   DesignType=Live   DesActOpt="Prog Det"   DesignAct="Short-Term Composite"   AutoType=None   RunCase=Yes   GUID=0bc638d1-b351-4ebf-9700-f7a695bc31b3
 
TABLE:  "LOAD PATTERN DEFINITIONS"
   LoadPat=DEAD   DesignType=Dead   SelfWtMult=1
   LoadPat=VA   DesignType=Live   SelfWtMult=0
   LoadPat=NEO   DesignType=Live   SelfWtMult=0   GUID=8ad6c0e0-38ac-49ae-9db2-4dbe7289ca24   Notes="Added 7/21/2025 7:44:46 PM"
   LoadPat=HT   DesignType=Live   SelfWtMult=0   GUID=38adc8d3-0552-4273-85cc-d6076d7da897   Notes="Added 7/21/2025 7:44:51 PM"
 
TABLE:  "MASS SOURCE"
   MassSource=MSSSRC1   Elements=Yes   Masses=Yes   Loads=No   IsDefault=Yes
 
TABLE:  "MATERIAL PROPERTIES 01 - GENERAL"
   Material=BTCTCOC   Type=Concrete   SymType=Isotropic   TempDepend=No   Color=Red   Notes="Normalweight f'c = 4 ksi added 6/7/2019 7:58:35 AM"
   Material=Steel   Type=Steel   SymType=Isotropic   TempDepend=No   Color=Magenta   GUID=1275504a-ffa7-47cf-a416-bdbac950499a   Notes="Steel added 8/19/2025 3:38:17 PM"
   Material=Tendon   Type=Tendon   SymType=Uniaxial   TempDepend=No   Color=Yellow   GUID=2ddd1699-5a09-4514-bc92-1f30ea9dfc08   Notes="Tendon added 8/19/2025 3:38:17 PM"
 
TABLE:  "MATERIAL PROPERTIES 02 - BASIC MECHANICAL PROPERTIES"
   Material=BTCTCOC   UnitWeight=2.4028   UnitMass=0.245017406667203   E1=3400000   G12=1360000   U12=0.25   A1=9.9E-06
   Material=Steel   UnitWeight=7.84904757236607   UnitMass=0.800380070686609   E1=20389019.1580383   G12=7841930.44539935   U12=0.3   A1=1.17E-05
   Material=Tendon   UnitWeight=7.84904757236607   UnitMass=0.800380070686609   E1=20037484.3449687   A1=1.16999994421006E-05
 
TABLE:  "MATERIAL PROPERTIES 03A - STEEL DATA"
   Material=Steel   Fy=35153.4813069626   Fu=45699.5256990514   EffFy=38668.8294376589   EffFu=50269.4782689565   SSCurveOpt=Simple   SSHysType=Kinematic   SHard=0.015   SMax=0.11   SRup=0.17   FinalSlope=-0.1   CoupModType="Von Mises"
 
TABLE:  "MATERIAL PROPERTIES 03B - CONCRETE DATA"
   Material=BTCTCOC   Fc=2812.2785   eFc=2812.2785   LtWtConc=No   SSCurveOpt="User Defined"   SSHysType=Kinematic   FAngle=0   DAngle=0   CoupModType="Modified Darwin-Pecknold"
 
TABLE:  "MATERIAL PROPERTIES 03F - TENDON DATA"
   Material=Tendon   Fy=172322.365366731   Fu=189828.799057598   SSCurveOpt="270 ksi"   SSHysType=Kinematic   FinalSlope=-0.1   CoupModType="Von Mises"
 
TABLE:  "MATERIAL PROPERTIES 03J - COUPLED NONLINEAR VON MISES DATA"
   Material=Steel   YieldStress=38668.8294376589   LinIsoHard=No   LinKinHard=No   NLIsoSaHard=No
   Material=Tendon   YieldStress=172322.365366731   LinIsoHard=No   LinKinHard=No   NLIsoSaHard=No
 
TABLE:  "MATERIAL PROPERTIES 04 - USER STRESS-STRAIN CURVES"
   Material=BTCTCOC   Strain=-0.0426470588235294   Stress=0   PointID=-E
   Material=BTCTCOC   Strain=-0.0298529411764706   Stress=-21092.0887841776   PointID=-D
   Material=BTCTCOC   Strain=-0.0170588235294118   Stress=-42184.1775683551   PointID=-C
   Material=BTCTCOC   Strain=-0.00176470588235294   Stress=-42184.1775683551   PointID=-B
   Material=BTCTCOC   Strain=0   Stress=0   PointID=A
   Material=BTCTCOC   Strain=0.00176470588235294   Stress=42184.1775683551   PointID=B
   Material=BTCTCOC   Strain=0.0170588235294118   Stress=42184.1775683551
   Material=BTCTCOC   Strain=0.0426470588235294   Stress=52730.2219604439   PointID=C
   Material=BTCTCOC   Strain=0.0682352941176471   Stress=52730.2219604439   PointID=D
   Material=BTCTCOC   Strain=0.0852941176470588   Stress=42184.1775683551   PointID=E
 
TABLE:  "MATERIAL PROPERTIES 06 - DAMPING PARAMETERS"
   Material=BTCTCOC   ModalRatio=0   VisMass=0   VisStiff=0   HysMass=0   HysStiff=0
   Material=Steel   ModalRatio=0   VisMass=0   VisStiff=0   HysMass=0   HysStiff=0
   Material=Tendon   ModalRatio=0   VisMass=0   VisStiff=0   HysMass=0   HysStiff=0
 
TABLE:  "MATERIAL PROPERTIES 09 - ACCEPTANCE CRITERIA"
   Material=BTCTCOC   IOTens=0.01   LSTens=0.02   CPTens=0.05   IOComp=-0.003   LSComp=-0.006   CPComp=-0.015   IgnoreTens=Yes
   Material=Steel   IOTens=0.01   LSTens=0.02   CPTens=0.05   IOComp=-0.005   LSComp=-0.01   CPComp=-0.02
   Material=Tendon   IOTens=0.015   LSTens=0.023   CPTens=0.03   IOComp=-0.015   LSComp=-0.023   CPComp=-0.03
 
TABLE:  "OPTIONS - COLORS - DISPLAY"
   DeviceType=Screen   Points=Yellow   LinesFrame=Yellow   LinesFrmDL=Yellow   LinesCable=Green   LinesTendon=Green   SpringLinks=Green   Restraints=Green   Releases=Green   Axes=Cyan   Text=Green   ShadowLines=Gray8Dark _
        GuideLines=Gray8Dark   Highlight=Red   Selection=White   AreaFillBot=Red   AreaFillTop=Yellow   AreaFillSd=Red   AreaEdge=DarkRed   SolidF1=Red   SolidF2=Blue   SolidF3=Green   SolidF4=Yellow   SolidF5=White   SolidF6=Cyan _
        SolidEdge=DarkRed   Floor=Gray4   Background=Black   BGLowLeft=Black   BGLowRight=Black   BGUpRight=Black   Darkness=0.5
   DeviceType=Printer   Points=Gray8Dark   LinesFrame=Black   LinesFrmDL=Gray4   LinesCable=Black   LinesTendon=Black   SpringLinks=Gray8Dark   Restraints=Gray8Dark   Releases=Gray4   Axes=Black   Text=Black   ShadowLines=Gray4 _
        GuideLines=Gray4   Highlight=Black   Selection=Black   AreaFillBot=Gray4   AreaFillTop=Gray8Dark   AreaFillSd=Gray4   AreaEdge=Black   SolidF1=Gray1Light   SolidF2=Gray2   SolidF3=Gray3   SolidF4=Gray4   SolidF5=Gray5 _
        SolidF6=Gray6   SolidEdge=Black   Floor=Gray4   Background=White   BGLowLeft=White   BGLowRight=White   BGUpRight=White   Darkness=0.5
   DeviceType="Color Printer"   Points=Yellow   LinesFrame=Blue   LinesFrmDL=Blue   LinesCable=Green   LinesTendon=Green   SpringLinks=Green   Restraints=Green   Releases=Green   Axes=Cyan   Text=Green   ShadowLines=Gray8Dark _
        GuideLines=Gray8Dark   Highlight=Red   Selection=10504778   AreaFillBot=Red   AreaFillTop=Yellow   AreaFillSd=16634568   AreaEdge=DarkRed   SolidF1=Red   SolidF2=Blue   SolidF3=Green   SolidF4=Yellow   SolidF5=White   SolidF6=Cyan _
        SolidEdge=DarkRed   Floor=10461087   Background=White   BGLowLeft=White   BGLowRight=14671839   BGUpRight=White   Darkness=0.5
 
TABLE:  "OPTIONS - COLORS - OUTPUT"
   DeviceType=Screen   Contour1=13107400   Contour2=6553828   Contour3=Red   Contour4=16639   Contour5=Orange   Contour6=43775   Contour7=54527   Contour8=Yellow   Contour9=65408   Contour10=Green   Contour11=8453888   Contour12=Cyan _
        Contour13=16755200   Contour14=16733440   Contour15=Blue   Transpare=0.5   Ratio1=Cyan   Ratio2=Green   Ratio3=Yellow   Ratio4=Orange   Ratio5=Red   RatioNotD=Gray4   RatioNotC=Red   RatioVal1=0.5   RatioVal2=0.7   RatioVal3=0.9 _
        RatioVal4=1   DFillPos=Yellow   DFillNeg=Red   DFillRPos=Blue   DFillRNeg=Blue
   DeviceType=Printer   Contour1=Black   Contour2=3158064   Contour3=4210752   Contour4=5263440   Contour5=6316128   Contour6=7368816   Contour7=Gray8Dark   Contour8=Gray7   Contour9=Gray6   Contour10=Gray5   Contour11=Gray4 _
        Contour12=Gray3   Contour13=Gray2   Contour14=Gray1Light   Contour15=White   Transpare=0   Ratio1=Gray2   Ratio2=Gray4   Ratio3=Gray8Dark   Ratio4=4210752   Ratio5=Black   RatioNotD=Gray4   RatioNotC=Black   RatioVal1=0.5 _
        RatioVal2=0.7   RatioVal3=0.9   RatioVal4=1   DFillPos=Gray8Dark   DFillNeg=Gray8Dark   DFillRPos=4210752   DFillRNeg=4210752
   DeviceType="Color Printer"   Contour1=13107400   Contour2=6553828   Contour3=Red   Contour4=16639   Contour5=Orange   Contour6=43775   Contour7=54527   Contour8=Yellow   Contour9=65408   Contour10=Green   Contour11=8453888 _
        Contour12=Cyan   Contour13=16755200   Contour14=16733440   Contour15=Blue   Transpare=0.5   Ratio1=Cyan   Ratio2=Green   Ratio3=Yellow   Ratio4=Orange   Ratio5=Red   RatioNotD=Gray4   RatioNotC=Red   RatioVal1=0.5   RatioVal2=0.7 _
        RatioVal3=0.9   RatioVal4=1   DFillPos=Red   DFillNeg=Red   DFillRPos=Blue   DFillRNeg=Blue
 
TABLE:  "PREFERENCES - ALUMINUM DESIGN - AA 2015"
   THDesign=Envelopes   SRatioLimit=1   Provision=ASD   LatFact=1.33333333333333   UseLatFact=No   Bridge=No   OmegaTy=1.65   OmegaTr=1.95   OmegaC=1.65   OmegaBo=1.65   OmegaBr=1.95   OmegaVo=1.65   OmegaVr=1.95
 
TABLE:  "PREFERENCES - COLD FORMED DESIGN - AISI-ASD96"
   THDesign=Envelopes   FrameType="Braced Frame"   SRatioLimit=1   MaxIter=1   OmegaBS=1.67   OmegaBUS=1.67   OmegaBLTB=1.67   OmegaVS=1.67   OmegaVNS=1.5   OmegaT=1.67   OmegaC=1.8
 
TABLE:  "PREFERENCES - CONCRETE DESIGN - ACI 318-08/IBC2009"
   THDesign=Envelopes   NumCurves=24   NumPoints=11   MinEccen=Yes   PatLLF=0.75   UFLimit=0.95   SeisCat=D   Rho=1   Sds=0.5   PhiT=0.9   PhiCTied=0.65   PhiCSpiral=0.7   PhiV=0.75   PhiVSeismic=0.6   PhiVJoint=0.85   TanTheta=1
 
TABLE:  "PREFERENCES - CONCRETE SHELL DESIGN - EUROCODE 2-2004"
   Country="CEN Default"   GammaS=1.15   GammaC=1.5   AlphaCC=1
 
TABLE:  "PREFERENCES - DIMENSIONAL"
   MergeTol=0.001   FineGrid=0.25   Nudge=0.25   SelectTol=3   SnapTol=12   SLineThick=1   PLineThick=4   MaxFont=6   MinFont=6   AutoZoom=10   ShrinkFact=70   TextFileLen=240
 
TABLE:  "PREFERENCES - STEEL DESIGN - AISC-LRFD93"
   THDesign=Envelopes   FrameType="Moment Frame"   PatLLF=0.75   SRatioLimit=0.95   MaxIter=1   PhiB=0.9   PhiC=0.85   PhiT=0.9   PhiV=0.9   PhiCA=0.9   CheckDefl=No   DLRat=120   SDLAndLLRat=120   LLRat=360   TotalRat=240   NetRat=240
 
TABLE:  "PROGRAM CONTROL"
   ProgramName=SAP2000   Version=24.0.0   CurrUnits="Tonf, m, C"   SteelCode=AISC-LRFD93   ConcCode="ACI 318-08/IBC2009"   AlumCode="AA 2015"   ColdCode=AISI-ASD96   RegenHinge=No
 
TABLE:  "PROJECT INFORMATION"
   Item="Company Name"
   Item="Client Name"
   Item="Project Name"
   Item="Project Number"
   Item="Model Name"
   Item="Model Description"
   Item="Revision Number"
   Item="Frame Type"
   Item=Engineer
   Item=Checker
   Item=Supervisor
   Item="Issue Code"
   Item="Design Code"
 
TABLE:  "REBAR SIZES"
   RebarID=#2   Area=3.2258E-05   Diameter=0.00635
   RebarID=#3   Area=7.09675996154547E-05   Diameter=0.009525
   RebarID=#4   Area=0.000129032001922727   Diameter=0.0127
   RebarID=#5   Area=0.000199999601538181   Diameter=0.015875
   RebarID=#6   Area=0.000283870398461819   Diameter=0.01905
   RebarID=#7   Area=0.000387096015381813   Diameter=0.022225
   RebarID=#8   Area=0.000509676413843632   Diameter=0.0254
   RebarID=#9   Area=0.00064516   Diameter=0.0286512005329132
   RebarID=#10   Area=0.00081935318769455   Diameter=0.0322579995155334
   RebarID=#11   Area=0.00100644956308365   Diameter=0.0358139991521835
   RebarID=#14   Area=0.00145161   Diameter=0.0430021989583969
   RebarID=#18   Area=0.00258064   Diameter=0.0573277992248535
   RebarID=10M   Area=0.000100000004162606   Diameter=0.0113000003604438
   RebarID=15M   Area=0.000200000008325212   Diameter=0.0160000002402959
   RebarID=20M   Area=0.000300000012487818   Diameter=0.0195000002928606
   RebarID=25M   Area=0.000500000020813031   Diameter=0.0252000011414055
   RebarID=30M   Area=0.000700000029138243   Diameter=0.0299000000675832
   RebarID=35M   Area=0.00100000004162606   Diameter=0.0357000012990997
   RebarID=45M   Area=0.00150000006243909   Diameter=0.0437000014192476
   RebarID=55M   Area=0.00250000010406515   Diameter=0.056400002372922
   RebarID=6Ø   Area=2.83000004150781E-05   Diameter=0.00600000009011096
   RebarID=8Ø   Area=5.03000013308514E-05   Diameter=0.00800000012014795
   RebarID=10Ø   Area=7.85000032676458E-05   Diameter=0.0100000001501849
   RebarID=12Ø   Area=0.000113000004703745   Diameter=0.0120000001802219
   RebarID=14Ø   Area=0.000154000006410413   Diameter=0.0140000002102589
   RebarID=16Ø   Area=0.000201000008366838   Diameter=0.0160000002402959
   RebarID=20Ø   Area=0.000314000013070583   Diameter=0.0200000003003699
   RebarID=25Ø   Area=0.000491000020438396   Diameter=0.0250000003754623
   RebarID=26Ø   Area=0.000531000022103439   Diameter=0.0260000003904808
   RebarID=28Ø   Area=0.000616000025641654   Diameter=0.0280000004205178
 
TABLE:  "SOLID PROPERTY ASSIGNMENTS"
   Solid=1   SolidProp=TRU
   Solid=2   SolidProp=TRU
   Solid=3   SolidProp=TRU
   Solid=4   SolidProp=TRU
   Solid=5   SolidProp=TRU
   Solid=6   SolidProp=TRU
   Solid=7   SolidProp=TRU
   Solid=8   SolidProp=TRU
   Solid=9   SolidProp=TRU
   Solid=10   SolidProp=TRU
   Solid=11   SolidProp=TRU
   Solid=12   SolidProp=TRU
   Solid=13   SolidProp=TRU
   Solid=14   SolidProp=TRU
   Solid=15   SolidProp=TRU
   Solid=16   SolidProp=TRU
   Solid=17   SolidProp=TRU
   Solid=18   SolidProp=TRU
   Solid=19   SolidProp=TRU
   Solid=20   SolidProp=TRU
# ... 380 like lines cut
 
TABLE:  "SOLID PROPERTY DEFINITIONS"
   SolidProp=TRU   Material=BTCTCOC   MatAngleA=0   MatAngleB=0   MatAngleC=0   InComp=Yes   Color=Magenta
 
TABLE:  "VEHICLES 2 - GENERAL VEHICLES 1 - GENERAL"
   VehName=CT45   StayInLane=No
 
TABLE:  "VEHICLES 3 - GENERAL VEHICLES 2 - LOADS"
   VehName=CT45   LoadType="Leading Load"   InterUnif=0   InterAxle=25
   VehName=CT45   LoadType="Fixed Length"   InterUnif=0   InterAxle=25   InterMinD=0.85
   VehName=CT45   LoadType="Fixed Length"   InterUnif=0   InterAxle=25   InterMinD=1.1
   VehName=CT45   LoadType="Fixed Length"   InterUnif=0   InterAxle=25   InterMinD=0.85
   VehName=CT45   LoadType="Fixed Length"   InterUnif=0   InterAxle=25   InterMinD=1.1
   VehName=CT45   LoadType="Fixed Length"   InterUnif=0   InterAxle=25   InterMinD=0.85
   VehName=CT45   LoadType="Fixed Length"   InterUnif=0   InterAxle=25   InterMinD=1.1
   VehName=CT45   LoadType="Fixed Length"   InterUnif=0   InterAxle=25   InterMinD=0.85
   VehName=CT45   LoadType="Fixed Length"   InterUnif=0   InterAxle=25   InterMinD=3.8
   VehName=CT45   LoadType="Fixed Length"   InterUnif=0   InterAxle=25   InterMinD=0.85
   VehName=CT45   LoadType="Fixed Length"   InterUnif=0   InterAxle=25   InterMinD=1.1
   VehName=CT45   LoadType="Fixed Length"   InterUnif=0   InterAxle=25   InterMinD=0.85
   VehName=CT45   LoadType="Fixed Length"   InterUnif=0   InterAxle=25   InterMinD=1.1
   VehName=CT45   LoadType="Fixed Length"   InterUnif=0   InterAxle=25   InterMinD=0.85
   VehName=CT45   LoadType="Fixed Length"   InterUnif=0   InterAxle=25   InterMinD=1.1
   VehName=CT45   LoadType="Fixed Length"   InterUnif=0   InterAxle=25   InterMinD=0.85
   VehName=CT45   LoadType="Trailing Load"   InterUnif=0
 
TABLE:  "VEHICLES 4 - VEHICLE CLASSES"
   VehClass=CT45   VehName=CT45   ScaleFactor=1
 
END TABLE DATA
