File D:\OneDrive\Nature-Inspired Optimization Algorithms\Multiobjectives\MOSFOA\MPJ_Sap\W04\MPJ_4.$2k was saved on m/d/yy at h:mm:ss
 
TABLE:  "ACTIVE DEGREES OF FREEDOM"
   UX=Yes   UY=Yes   UZ=Yes   RX=Yes   RY=Yes   RZ=Yes
 
TABLE:  "ANALYSIS OPTIONS"
   Solver=Advanced   SolverProc=Auto   Force32Bit=No   StiffCase=None   GeomMod=None   HingeOpt="In Elements"   NumAThreads=0   MaxFileSize=0   NumDThreads=0   NumRThreads=0   UseMMFiles="Program Determined"   AllowDiff=No
 
TABLE:  "AREA AUTO MESH ASSIGNMENTS"
   Area=101   MeshType="Number of Elements"   MeshGroup=ALL   Number1=3   Number2=3   LocalEdge=No   LocalFace=No   SuppEdge=No   SuppFace=No   SubMesh=No
   Area=102   MeshType="Number of Elements"   MeshGroup=ALL   Number1=3   Number2=3   LocalEdge=No   LocalFace=No   SuppEdge=No   SuppFace=No   SubMesh=No
   Area=103   MeshType="Number of Elements"   MeshGroup=ALL   Number1=3   Number2=3   LocalEdge=No   LocalFace=No   SuppEdge=No   SuppFace=No   SubMesh=No
   Area=104   MeshType="Number of Elements"   MeshGroup=ALL   Number1=3   Number2=3   LocalEdge=No   LocalFace=No   SuppEdge=No   SuppFace=No   SubMesh=No
   Area=105   MeshType="Number of Elements"   MeshGroup=ALL   Number1=3   Number2=3   LocalEdge=No   LocalFace=No   SuppEdge=No   SuppFace=No   SubMesh=No
   Area=106   MeshType="Number of Elements"   MeshGroup=ALL   Number1=3   Number2=3   LocalEdge=No   LocalFace=No   SuppEdge=No   SuppFace=No   SubMesh=No
   Area=107   MeshType="Number of Elements"   MeshGroup=ALL   Number1=3   Number2=3   LocalEdge=No   LocalFace=No   SuppEdge=No   SuppFace=No   SubMesh=No
   Area=108   MeshType="Number of Elements"   MeshGroup=ALL   Number1=3   Number2=3   LocalEdge=No   LocalFace=No   SuppEdge=No   SuppFace=No   SubMesh=No
   Area=109   MeshType="Number of Elements"   MeshGroup=ALL   Number1=3   Number2=3   LocalEdge=No   LocalFace=No   SuppEdge=No   SuppFace=No   SubMesh=No
   Area=110   MeshType="Number of Elements"   MeshGroup=ALL   Number1=3   Number2=3   LocalEdge=No   LocalFace=No   SuppEdge=No   SuppFace=No   SubMesh=No
   Area=111   MeshType="Number of Elements"   MeshGroup=ALL   Number1=3   Number2=3   LocalEdge=No   LocalFace=No   SuppEdge=No   SuppFace=No   SubMesh=No
   Area=112   MeshType="Number of Elements"   MeshGroup=ALL   Number1=3   Number2=3   LocalEdge=No   LocalFace=No   SuppEdge=No   SuppFace=No   SubMesh=No
   Area=113   MeshType="Number of Elements"   MeshGroup=ALL   Number1=3   Number2=3   LocalEdge=No   LocalFace=No   SuppEdge=No   SuppFace=No   SubMesh=No
   Area=114   MeshType="Number of Elements"   MeshGroup=ALL   Number1=3   Number2=3   LocalEdge=No   LocalFace=No   SuppEdge=No   SuppFace=No   SubMesh=No
   Area=115   MeshType="Number of Elements"   MeshGroup=ALL   Number1=3   Number2=3   LocalEdge=No   LocalFace=No   SuppEdge=No   SuppFace=No   SubMesh=No
   Area=116   MeshType="Number of Elements"   MeshGroup=ALL   Number1=3   Number2=3   LocalEdge=No   LocalFace=No   SuppEdge=No   SuppFace=No   SubMesh=No
   Area=117   MeshType="Number of Elements"   MeshGroup=ALL   Number1=3   Number2=3   LocalEdge=No   LocalFace=No   SuppEdge=No   SuppFace=No   SubMesh=No
   Area=118   MeshType="Number of Elements"   MeshGroup=ALL   Number1=3   Number2=3   LocalEdge=No   LocalFace=No   SuppEdge=No   SuppFace=No   SubMesh=No
 
TABLE:  "AREA LOADS - UNIFORM"
   Area=101   LoadPat=LL   CoordSys=GLOBAL   Dir=Gravity   UnifLoad=1.00034158457019
   Area=102   LoadPat=LL   CoordSys=GLOBAL   Dir=Gravity   UnifLoad=1.00034158457019
   Area=103   LoadPat=LL   CoordSys=GLOBAL   Dir=Gravity   UnifLoad=1.00034158457019
   Area=104   LoadPat=LL   CoordSys=GLOBAL   Dir=Gravity   UnifLoad=1.00034158457019
   Area=105   LoadPat=LL   CoordSys=GLOBAL   Dir=Gravity   UnifLoad=1.00034158457019
   Area=106   LoadPat=LL   CoordSys=GLOBAL   Dir=Gravity   UnifLoad=1.00034158457019
   Area=107   LoadPat=LL   CoordSys=GLOBAL   Dir=Gravity   UnifLoad=1.00034158457019
   Area=108   LoadPat=LL   CoordSys=GLOBAL   Dir=Gravity   UnifLoad=1.00034158457019
   Area=109   LoadPat=LL   CoordSys=GLOBAL   Dir=Gravity   UnifLoad=1.00034158457019
   Area=110   LoadPat=LL   CoordSys=GLOBAL   Dir=Gravity   UnifLoad=1.00034158457019
   Area=111   LoadPat=LL   CoordSys=GLOBAL   Dir=Gravity   UnifLoad=1.00034158457019
   Area=112   LoadPat=LL   CoordSys=GLOBAL   Dir=Gravity   UnifLoad=1.00034158457019
   Area=113   LoadPat=LL   CoordSys=GLOBAL   Dir=Gravity   UnifLoad=1.00034158457019
   Area=114   LoadPat=LL   CoordSys=GLOBAL   Dir=Gravity   UnifLoad=1.00034158457019
   Area=115   LoadPat=LL   CoordSys=GLOBAL   Dir=Gravity   UnifLoad=1.00034158457019
   Area=116   LoadPat=LL   CoordSys=GLOBAL   Dir=Gravity   UnifLoad=1.00034158457019
   Area=117   LoadPat=LL   CoordSys=GLOBAL   Dir=Gravity   UnifLoad=1.00034158457019
   Area=118   LoadPat=LL   CoordSys=GLOBAL   Dir=Gravity   UnifLoad=1.00034158457019
 
TABLE:  "AREA SECTION ASSIGNMENTS"
   Area=101   Section=Deck   MatProp=Default
   Area=102   Section=Deck   MatProp=Default
   Area=103   Section=Deck   MatProp=Default
   Area=104   Section=Deck   MatProp=Default
   Area=105   Section=Deck   MatProp=Default
   Area=106   Section=Deck   MatProp=Default
   Area=107   Section=Deck   MatProp=Default
   Area=108   Section=Deck   MatProp=Default
   Area=109   Section=Deck   MatProp=Default
   Area=110   Section=Deck   MatProp=Default
   Area=111   Section=Deck   MatProp=Default
   Area=112   Section=Deck   MatProp=Default
   Area=113   Section=Deck   MatProp=Default
   Area=114   Section=Deck   MatProp=Default
   Area=115   Section=Deck   MatProp=Default
   Area=116   Section=Deck   MatProp=Default
   Area=117   Section=Deck   MatProp=Default
   Area=118   Section=Deck   MatProp=Default
 
TABLE:  "AREA SECTION PROPERTIES"
   Section=Deck   Material=BTCT   MatAngle=0   AreaType=Shell   Type=Shell-Thin   DrillDOF=Yes   Thickness=0.3   BendThick=0.3   Color=Green   F11Mod=1   F22Mod=1   F12Mod=1   M11Mod=1   M22Mod=1   M12Mod=1   V13Mod=1   V23Mod=1   MMod=1 _
        WMod=1   Notes="Added 24-Feb-23 16:56:47"
 
TABLE:  "AREA SECTION PROPERTY DESIGN PARAMETERS"
   Section=Deck   RebarMat=None   RebarOpt=Default
 
TABLE:  "AREA SECTION PROPERTY - TIME DEPENDENT"
   Section=Deck   TypeSize=User   AutoSFSize=1   UserValSize=0.1
 
TABLE:  "AUTO COMBINATION OPTION DATA 01 - GENERAL"
   DesignType=Concrete   AutoGen=Yes
 
TABLE:  "AUTO COMBINATION OPTION DATA 02 - USER DATA"
   DesignType=Concrete   LSType=Strength   LCName=DEAD
   DesignType=Concrete   LSType=Strength   LCName=LL
 
TABLE:  "AUTO WAVE 3 - WAVE CHARACTERISTICS - GENERAL"
   WaveChar=Default   WaveType="From Theory"   KinFactor=1   SWaterDepth=45   WaveHeight=18   WavePeriod=12   WaveTheory=Linear
 
TABLE:  "CASE - MODAL 1 - GENERAL"
   Case=MODAL   ModeType=Eigen   MaxNumModes=12   MinNumModes=1   EigenShift=0   EigenCutoff=0   EigenTol=1E-09   AutoShift=Yes
 
TABLE:  "CASE - STATIC 1 - LOAD ASSIGNMENTS"
   Case=DEAD   LoadType="Load pattern"   LoadName=DEAD   LoadSF=1
   Case=LL   LoadType="Load pattern"   LoadName=LL   LoadSF=1
 
TABLE:  "COMBINATION DEFINITIONS"
   ComboName=COMB1   ComboType="Linear Add"   AutoDesign=No   CaseName=DEAD   ScaleFactor=1   SteelDesign=None   ConcDesign=Strength   AlumDesign=None   ColdDesign=None
   ComboName=COMB2   ComboType="Linear Add"   AutoDesign=No   CaseName=DEAD   ScaleFactor=1   SteelDesign=None   ConcDesign=Strength   AlumDesign=None   ColdDesign=None
   ComboName=COMB2   CaseName=LL   ScaleFactor=1
   ComboName=BAO   ComboType=Envelope   AutoDesign=No   CaseName=COMB1   ScaleFactor=1   SteelDesign=None   ConcDesign=Strength   AlumDesign=None   ColdDesign=None
   ComboName=BAO   CaseName=COMB2   ScaleFactor=1
   ComboName=DCON1   ComboType="Linear Add"   AutoDesign=Yes   CaseName=DEAD   ScaleFactor=1.4   SteelDesign=None   ConcDesign=Strength   AlumDesign=None   ColdDesign=None   GUID=bb4fff9a-98b5-44d1-9fde-34d92700a8e9   Notes="Dead Only; Strength"
   ComboName=DCON2   ComboType="Linear Add"   AutoDesign=Yes   CaseName=DEAD   ScaleFactor=1.25   SteelDesign=None   ConcDesign=Strength   AlumDesign=None   ColdDesign=None   GUID=505bcda7-6fac-4dd0-b03e-c591d1ffc6ce   Notes="Dead + Live; Strength"
   ComboName=DCON2   CaseName=LL   ScaleFactor=1.5
 
TABLE:  "CONNECTIVITY - AREA"
   Area=101   Joint1=343   Joint2=314   Joint3=295   Joint4=294   GUID=d1bfd733-79b4-4d16-b890-d3d17c7ff58f
   Area=102   Joint1=294   Joint2=295   Joint3=297   Joint4=296   GUID=3ca5143f-33cf-4e8a-9e50-f5387baeccef
   Area=103   Joint1=296   Joint2=297   Joint3=299   Joint4=298   GUID=5f71627f-9f2b-460e-b5f1-fe38c74f7431
   Area=104   Joint1=298   Joint2=299   Joint3=301   Joint4=300   GUID=275b61d2-db23-4736-8403-9f36e826d2b3
   Area=105   Joint1=300   Joint2=301   Joint3=303   Joint4=302   GUID=000a265d-6af2-4f8f-acbb-1587666d463b
   Area=106   Joint1=302   Joint2=303   Joint3=316   Joint4=344   GUID=080979c6-5462-4c5a-97a0-abdac7e5f947
   Area=107   Joint1=314   Joint2=315   Joint3=304   Joint4=295   GUID=2eba9315-eb25-4c28-9c6a-ba301c4d974a
   Area=108   Joint1=295   Joint2=304   Joint3=305   Joint4=297   GUID=10d8750a-6a13-4384-85d6-9ef93a5a7418
   Area=109   Joint1=297   Joint2=305   Joint3=306   Joint4=299   GUID=62f43f46-154a-4e3d-b0d9-99ca86d5e8d0
   Area=110   Joint1=299   Joint2=306   Joint3=307   Joint4=301   GUID=82988eb3-8465-47d5-9d26-d5132f576262
   Area=111   Joint1=301   Joint2=307   Joint3=308   Joint4=303   GUID=d619a4f0-98e4-49b1-94ee-a8b55e53b55e
   Area=112   Joint1=303   Joint2=308   Joint3=317   Joint4=316   GUID=4fbe657e-82fc-457b-ac41-cd5a370a8e8a
   Area=113   Joint1=315   Joint2=345   Joint3=309   Joint4=304   GUID=1e223a1c-dfbc-40c0-970b-7c17b73f19aa
   Area=114   Joint1=304   Joint2=309   Joint3=310   Joint4=305   GUID=79f534dc-1f7a-464a-bf7f-7178c9833827
   Area=115   Joint1=305   Joint2=310   Joint3=311   Joint4=306   GUID=0ca04879-7498-44a3-84b6-dd6bfc5e841d
   Area=116   Joint1=306   Joint2=311   Joint3=312   Joint4=307   GUID=e52811e5-ff85-4bca-99d8-2c814dd76151
   Area=117   Joint1=307   Joint2=312   Joint3=313   Joint4=308   GUID=22e74a69-8f53-487d-8ccf-416a1c83ba72
   Area=118   Joint1=308   Joint2=313   Joint3=346   Joint4=317   GUID=ca0cd0b6-cfd4-4950-a30a-5a87f54cbdbf
 
TABLE:  "CONNECTIVITY - FRAME"
   Frame=315   JointI=294   JointJ=295   IsCurved=No   GUID=8fe25a03-27a7-4783-af50-f13b90345ea3
   Frame=316   JointI=296   JointJ=297   IsCurved=No   GUID=576e4f62-a994-440c-8847-8108dcc6a968
   Frame=317   JointI=298   JointJ=299   IsCurved=No   GUID=b8bdf08d-1e9e-4537-bf58-e592ff8e68b8
   Frame=318   JointI=300   JointJ=301   IsCurved=No   GUID=787a833e-c013-4bde-ab07-2e715c0bf144
   Frame=319   JointI=302   JointJ=303   IsCurved=No   GUID=1c9d593c-c7f5-4231-97d7-d091dfa6603e
   Frame=320   JointI=295   JointJ=304   IsCurved=No   GUID=a3abad2a-59e5-4af2-8711-2cd35645f4df
   Frame=321   JointI=297   JointJ=305   IsCurved=No   GUID=3ea28e36-c78e-4620-bea3-1bfd66d14f69
   Frame=322   JointI=299   JointJ=306   IsCurved=No   GUID=11d60c26-ff65-48e1-9d8c-18c0c1fe4fba
   Frame=323   JointI=301   JointJ=307   IsCurved=No   GUID=ba3f8b2b-c271-406e-9e1f-2cc204f9c2d5
   Frame=324   JointI=303   JointJ=308   IsCurved=No   GUID=abe9e2f5-aa1b-4af9-a4f2-001b366285f0
   Frame=325   JointI=304   JointJ=309   IsCurved=No   GUID=65040d6d-8937-40b6-b90d-f4b586bbca54
   Frame=326   JointI=305   JointJ=310   IsCurved=No   GUID=8e5f5a3e-53cb-44e9-a990-14cba936886a
   Frame=327   JointI=306   JointJ=311   IsCurved=No   GUID=d672d1df-e149-46f0-89a9-8a2ea789c486
   Frame=328   JointI=307   JointJ=312   IsCurved=No   GUID=3634c974-930d-4fb4-a77c-87061579dfb5
   Frame=329   JointI=308   JointJ=313   IsCurved=No   GUID=b7fd1488-67bc-443c-8d21-94841d3ac5d0
   Frame=330   JointI=314   JointJ=295   IsCurved=No   GUID=0383acb0-ad21-444b-aadc-18aee3ea65dc
   Frame=331   JointI=315   JointJ=304   IsCurved=No   GUID=f76d25bf-c65a-478d-a791-27d477ef8e8d
   Frame=332   JointI=295   JointJ=297   IsCurved=No   GUID=f7d96242-f882-4c85-a0be-6330ac1b2af1
   Frame=333   JointI=304   JointJ=305   IsCurved=No   GUID=c629de1b-5e07-4933-ab09-1db2bfbe2d1a
   Frame=334   JointI=297   JointJ=299   IsCurved=No   GUID=31fb897a-29bc-4418-8cb1-7c88f0338ca1
   Frame=335   JointI=305   JointJ=306   IsCurved=No   GUID=26997f23-bdc7-42d6-997b-bde54914a01a
   Frame=336   JointI=299   JointJ=301   IsCurved=No   GUID=f8ed8b8b-ad2c-4135-ab5f-8f59db0d3a74
   Frame=337   JointI=306   JointJ=307   IsCurved=No   GUID=788898b0-58e4-4cd4-9ec9-47557d92fdfc
   Frame=338   JointI=301   JointJ=303   IsCurved=No   GUID=9d1e380c-7412-43d2-88da-d15e130610b1
   Frame=339   JointI=307   JointJ=308   IsCurved=No   GUID=8ca276c6-a6e3-439f-bfaf-1cc0f59c3799
   Frame=340   JointI=303   JointJ=316   IsCurved=No   GUID=7408ff05-5479-42cd-a03d-ab624eb1d704
   Frame=341   JointI=308   JointJ=317   IsCurved=No   GUID=cd1944de-c63c-4a2f-a4ca-e8b0fe28697d
   Frame=342   JointI=295   JointJ=318   IsCurved=No   GUID=badd42a9-3e17-4e8d-89de-1ab00746f3c2
   Frame=343   JointI=318   JointJ=319   IsCurved=No   GUID=dbc806e8-ce31-43be-a507-9c0a4fc3b9ab
   Frame=344   JointI=319   JointJ=320   IsCurved=No   GUID=0291960d-d38a-4ed7-8b5a-fd0350ff909f
   Frame=345   JointI=297   JointJ=321   IsCurved=No   GUID=7df1f738-a0c8-4a55-a84b-1bc4665c5f9d
   Frame=346   JointI=321   JointJ=322   IsCurved=No   GUID=b712d4b5-3d73-44ce-8f36-40e340f6c05d
   Frame=347   JointI=322   JointJ=323   IsCurved=No   GUID=b3e53949-76b1-4d92-af7a-d73311dbff24
   Frame=348   JointI=299   JointJ=324   IsCurved=No   GUID=85c675a8-3ab6-46ae-b45c-cfa5ca32efcd
   Frame=349   JointI=324   JointJ=325   IsCurved=No   GUID=be6e3482-660b-45f0-925b-b4f26c08ade7
   Frame=350   JointI=325   JointJ=326   IsCurved=No   GUID=8a79c3a7-dae3-41b4-aa5d-143c8953a802
   Frame=351   JointI=301   JointJ=327   IsCurved=No   GUID=b311f4f6-769f-43ea-ac6c-7c8c447c0fb1
   Frame=352   JointI=327   JointJ=328   IsCurved=No   GUID=57bf346b-050b-4f84-9498-333d3b733d25
   Frame=353   JointI=328   JointJ=329   IsCurved=No   GUID=4e23b523-041a-451f-a14f-aaa4c5f4680e
   Frame=354   JointI=303   JointJ=330   IsCurved=No   GUID=4a348a5f-de5e-43b7-a7b8-75639956b5d1
   Frame=355   JointI=330   JointJ=331   IsCurved=No   GUID=622dfe22-5357-4d2d-8f65-de4d14350392
   Frame=356   JointI=331   JointJ=332   IsCurved=No   GUID=19d86e71-4141-495b-9ff9-f4e333f59d0f
   Frame=357   JointI=304   JointJ=333   IsCurved=No   GUID=dc06fec1-225a-4331-b889-2a1c3513e01d
   Frame=358   JointI=333   JointJ=334   IsCurved=No   GUID=16f18d43-801a-47ab-914a-b20a1832145e
   Frame=359   JointI=305   JointJ=335   IsCurved=No   GUID=a459ccf4-fde6-4b7c-83ca-b3f55d731230
   Frame=360   JointI=335   JointJ=336   IsCurved=No   GUID=dac758e2-d2e8-4967-be7f-8d394e9ce34d
   Frame=361   JointI=306   JointJ=337   IsCurved=No   GUID=d3b9d8d3-145e-4f4d-9617-27b3334bb25b
   Frame=362   JointI=337   JointJ=338   IsCurved=No   GUID=5bc4c9e4-6d5c-407f-98b2-3406d5b484f0
   Frame=363   JointI=307   JointJ=339   IsCurved=No   GUID=c2ff1a08-8cec-43c2-acb0-0ef25b9ede80
   Frame=364   JointI=339   JointJ=340   IsCurved=No   GUID=49a143b7-cf81-4c51-b6ef-93bcf02ff558
   Frame=365   JointI=308   JointJ=341   IsCurved=No   GUID=8fe99f06-34da-4d4e-b029-cb9c1ee8188e
   Frame=366   JointI=341   JointJ=342   IsCurved=No   GUID=514abc7b-4e9b-4624-8fa6-31fbb0c61568
   Frame=367   JointI=318   JointJ=321   IsCurved=No   GUID=ed9ecdf4-a69d-4ffe-bbf0-3ce1bad0fd18
   Frame=368   JointI=321   JointJ=324   IsCurved=No   GUID=2b4878da-cd5a-465e-a9f4-24862065afb5
   Frame=369   JointI=324   JointJ=327   IsCurved=No   GUID=957246a9-d057-4f2e-b60c-81322fd3e9dc
   Frame=370   JointI=327   JointJ=330   IsCurved=No   GUID=67562dfc-1540-4ca4-9d8e-195c64230cea
 
TABLE:  "COORDINATE SYSTEMS"
   Name=GLOBAL   Type=Cartesian   X=0   Y=0   Z=0   AboutZ=0   AboutY=0   AboutX=0
 
TABLE:  "DATABASE DOCUMENTATION"
 
TABLE:  "DATABASE FORMAT TYPES"
   UnitsCurr=Yes   OverrideE=No
 
TABLE:  "FRAME AUTO MESH ASSIGNMENTS"
   Frame=315   AutoMesh=Yes   AtJoints=Yes   AtFrames=No   NumSegments=0   MaxLength=0   MaxDegrees=0
   Frame=316   AutoMesh=Yes   AtJoints=Yes   AtFrames=No   NumSegments=0   MaxLength=0   MaxDegrees=0
   Frame=317   AutoMesh=Yes   AtJoints=Yes   AtFrames=No   NumSegments=0   MaxLength=0   MaxDegrees=0
   Frame=318   AutoMesh=Yes   AtJoints=Yes   AtFrames=No   NumSegments=0   MaxLength=0   MaxDegrees=0
   Frame=319   AutoMesh=Yes   AtJoints=Yes   AtFrames=No   NumSegments=0   MaxLength=0   MaxDegrees=0
   Frame=320   AutoMesh=Yes   AtJoints=Yes   AtFrames=No   NumSegments=0   MaxLength=0   MaxDegrees=0
   Frame=321   AutoMesh=Yes   AtJoints=Yes   AtFrames=No   NumSegments=0   MaxLength=0   MaxDegrees=0
   Frame=322   AutoMesh=Yes   AtJoints=Yes   AtFrames=No   NumSegments=0   MaxLength=0   MaxDegrees=0
   Frame=323   AutoMesh=Yes   AtJoints=Yes   AtFrames=No   NumSegments=0   MaxLength=0   MaxDegrees=0
   Frame=324   AutoMesh=Yes   AtJoints=Yes   AtFrames=No   NumSegments=0   MaxLength=0   MaxDegrees=0
   Frame=325   AutoMesh=Yes   AtJoints=Yes   AtFrames=No   NumSegments=0   MaxLength=0   MaxDegrees=0
   Frame=326   AutoMesh=Yes   AtJoints=Yes   AtFrames=No   NumSegments=0   MaxLength=0   MaxDegrees=0
   Frame=327   AutoMesh=Yes   AtJoints=Yes   AtFrames=No   NumSegments=0   MaxLength=0   MaxDegrees=0
   Frame=328   AutoMesh=Yes   AtJoints=Yes   AtFrames=No   NumSegments=0   MaxLength=0   MaxDegrees=0
   Frame=329   AutoMesh=Yes   AtJoints=Yes   AtFrames=No   NumSegments=0   MaxLength=0   MaxDegrees=0
   Frame=330   AutoMesh=Yes   AtJoints=Yes   AtFrames=No   NumSegments=0   MaxLength=0   MaxDegrees=0
   Frame=331   AutoMesh=Yes   AtJoints=Yes   AtFrames=No   NumSegments=0   MaxLength=0   MaxDegrees=0
   Frame=332   AutoMesh=Yes   AtJoints=Yes   AtFrames=No   NumSegments=0   MaxLength=0   MaxDegrees=0
   Frame=333   AutoMesh=Yes   AtJoints=Yes   AtFrames=No   NumSegments=0   MaxLength=0   MaxDegrees=0
   Frame=334   AutoMesh=Yes   AtJoints=Yes   AtFrames=No   NumSegments=0   MaxLength=0   MaxDegrees=0
# ... 36 like lines cut
 
TABLE:  "FRAME DESIGN PROCEDURES"
   Frame=315   DesignProc="From Material"
   Frame=316   DesignProc="From Material"
   Frame=317   DesignProc="From Material"
   Frame=318   DesignProc="From Material"
   Frame=319   DesignProc="From Material"
   Frame=320   DesignProc="From Material"
   Frame=321   DesignProc="From Material"
   Frame=322   DesignProc="From Material"
   Frame=323   DesignProc="From Material"
   Frame=324   DesignProc="From Material"
   Frame=325   DesignProc="From Material"
   Frame=326   DesignProc="From Material"
   Frame=327   DesignProc="From Material"
   Frame=328   DesignProc="From Material"
   Frame=329   DesignProc="From Material"
   Frame=330   DesignProc="From Material"
   Frame=331   DesignProc="From Material"
   Frame=332   DesignProc="From Material"
   Frame=333   DesignProc="From Material"
   Frame=334   DesignProc="From Material"
# ... 8 like lines cut
   Frame=343   DesignProc="No Design"
   Frame=344   DesignProc="No Design"
   Frame=345   DesignProc="From Material"
   Frame=346   DesignProc="No Design"
   Frame=347   DesignProc="No Design"
   Frame=348   DesignProc="From Material"
   Frame=349   DesignProc="No Design"
   Frame=350   DesignProc="No Design"
   Frame=351   DesignProc="From Material"
   Frame=352   DesignProc="No Design"
   Frame=353   DesignProc="No Design"
   Frame=354   DesignProc="From Material"
   Frame=355   DesignProc="No Design"
   Frame=356   DesignProc="No Design"
   Frame=357   DesignProc="No Design"
   Frame=358   DesignProc="No Design"
   Frame=359   DesignProc="No Design"
   Frame=360   DesignProc="No Design"
   Frame=361   DesignProc="No Design"
   Frame=362   DesignProc="No Design"
   Frame=363   DesignProc="No Design"
   Frame=364   DesignProc="No Design"
   Frame=365   DesignProc="No Design"
   Frame=366   DesignProc="No Design"
   Frame=367   DesignProc="From Material"
   Frame=368   DesignProc="From Material"
   Frame=369   DesignProc="From Material"
   Frame=370   DesignProc="From Material"
 
TABLE:  "FRAME LOAD TRANSFER OPTIONS"
   Frame=315   Transfer=Yes
   Frame=316   Transfer=Yes
   Frame=317   Transfer=Yes
   Frame=318   Transfer=Yes
   Frame=319   Transfer=Yes
   Frame=320   Transfer=Yes
   Frame=321   Transfer=Yes
   Frame=322   Transfer=Yes
   Frame=323   Transfer=Yes
   Frame=324   Transfer=Yes
   Frame=325   Transfer=Yes
   Frame=326   Transfer=Yes
   Frame=327   Transfer=Yes
   Frame=328   Transfer=Yes
   Frame=329   Transfer=Yes
   Frame=330   Transfer=Yes
   Frame=331   Transfer=Yes
   Frame=332   Transfer=Yes
   Frame=333   Transfer=Yes
   Frame=334   Transfer=Yes
# ... 36 like lines cut
 
TABLE:  "FRAME LOCAL AXES ASSIGNMENTS 1 - TYPICAL"
   Frame=342   Angle=90
   Frame=345   Angle=90
   Frame=348   Angle=90
   Frame=351   Angle=90
   Frame=354   Angle=90
 
TABLE:  "FRAME OUTPUT STATION ASSIGNMENTS"
   Frame=315   StationType=MaxStaSpcg   MaxStaSpcg=0.5   AddAtElmInt=Yes   AddAtPtLoad=Yes
   Frame=316   StationType=MaxStaSpcg   MaxStaSpcg=0.5   AddAtElmInt=Yes   AddAtPtLoad=Yes
   Frame=317   StationType=MaxStaSpcg   MaxStaSpcg=0.5   AddAtElmInt=Yes   AddAtPtLoad=Yes
   Frame=318   StationType=MaxStaSpcg   MaxStaSpcg=0.5   AddAtElmInt=Yes   AddAtPtLoad=Yes
   Frame=319   StationType=MaxStaSpcg   MaxStaSpcg=0.5   AddAtElmInt=Yes   AddAtPtLoad=Yes
   Frame=320   StationType=MaxStaSpcg   MaxStaSpcg=0.5   AddAtElmInt=Yes   AddAtPtLoad=Yes
   Frame=321   StationType=MaxStaSpcg   MaxStaSpcg=0.5   AddAtElmInt=Yes   AddAtPtLoad=Yes
   Frame=322   StationType=MaxStaSpcg   MaxStaSpcg=0.5   AddAtElmInt=Yes   AddAtPtLoad=Yes
   Frame=323   StationType=MaxStaSpcg   MaxStaSpcg=0.5   AddAtElmInt=Yes   AddAtPtLoad=Yes
   Frame=324   StationType=MaxStaSpcg   MaxStaSpcg=0.5   AddAtElmInt=Yes   AddAtPtLoad=Yes
   Frame=325   StationType=MaxStaSpcg   MaxStaSpcg=0.5   AddAtElmInt=Yes   AddAtPtLoad=Yes
   Frame=326   StationType=MaxStaSpcg   MaxStaSpcg=0.5   AddAtElmInt=Yes   AddAtPtLoad=Yes
   Frame=327   StationType=MaxStaSpcg   MaxStaSpcg=0.5   AddAtElmInt=Yes   AddAtPtLoad=Yes
   Frame=328   StationType=MaxStaSpcg   MaxStaSpcg=0.5   AddAtElmInt=Yes   AddAtPtLoad=Yes
   Frame=329   StationType=MaxStaSpcg   MaxStaSpcg=0.5   AddAtElmInt=Yes   AddAtPtLoad=Yes
   Frame=330   StationType=MaxStaSpcg   MaxStaSpcg=0.5   AddAtElmInt=Yes   AddAtPtLoad=Yes
   Frame=331   StationType=MaxStaSpcg   MaxStaSpcg=0.5   AddAtElmInt=Yes   AddAtPtLoad=Yes
   Frame=332   StationType=MaxStaSpcg   MaxStaSpcg=0.5   AddAtElmInt=Yes   AddAtPtLoad=Yes
   Frame=333   StationType=MaxStaSpcg   MaxStaSpcg=0.5   AddAtElmInt=Yes   AddAtPtLoad=Yes
   Frame=334   StationType=MaxStaSpcg   MaxStaSpcg=0.5   AddAtElmInt=Yes   AddAtPtLoad=Yes
# ... 7 like lines cut
   Frame=342   StationType=MinNumSta   MinNumSta=3   AddAtElmInt=Yes   AddAtPtLoad=Yes
   Frame=343   StationType=MinNumSta   MinNumSta=3   AddAtElmInt=Yes   AddAtPtLoad=Yes
   Frame=344   StationType=MinNumSta   MinNumSta=3   AddAtElmInt=Yes   AddAtPtLoad=Yes
   Frame=345   StationType=MinNumSta   MinNumSta=3   AddAtElmInt=Yes   AddAtPtLoad=Yes
   Frame=346   StationType=MinNumSta   MinNumSta=3   AddAtElmInt=Yes   AddAtPtLoad=Yes
   Frame=347   StationType=MinNumSta   MinNumSta=3   AddAtElmInt=Yes   AddAtPtLoad=Yes
   Frame=348   StationType=MinNumSta   MinNumSta=3   AddAtElmInt=Yes   AddAtPtLoad=Yes
   Frame=349   StationType=MinNumSta   MinNumSta=3   AddAtElmInt=Yes   AddAtPtLoad=Yes
   Frame=350   StationType=MinNumSta   MinNumSta=3   AddAtElmInt=Yes   AddAtPtLoad=Yes
   Frame=351   StationType=MinNumSta   MinNumSta=3   AddAtElmInt=Yes   AddAtPtLoad=Yes
   Frame=352   StationType=MinNumSta   MinNumSta=3   AddAtElmInt=Yes   AddAtPtLoad=Yes
   Frame=353   StationType=MinNumSta   MinNumSta=3   AddAtElmInt=Yes   AddAtPtLoad=Yes
   Frame=354   StationType=MinNumSta   MinNumSta=3   AddAtElmInt=Yes   AddAtPtLoad=Yes
   Frame=355   StationType=MinNumSta   MinNumSta=3   AddAtElmInt=Yes   AddAtPtLoad=Yes
   Frame=356   StationType=MinNumSta   MinNumSta=3   AddAtElmInt=Yes   AddAtPtLoad=Yes
   Frame=357   StationType=MinNumSta   MinNumSta=3   AddAtElmInt=Yes   AddAtPtLoad=Yes
   Frame=358   StationType=MinNumSta   MinNumSta=3   AddAtElmInt=Yes   AddAtPtLoad=Yes
   Frame=359   StationType=MinNumSta   MinNumSta=3   AddAtElmInt=Yes   AddAtPtLoad=Yes
   Frame=360   StationType=MinNumSta   MinNumSta=3   AddAtElmInt=Yes   AddAtPtLoad=Yes
   Frame=361   StationType=MinNumSta   MinNumSta=3   AddAtElmInt=Yes   AddAtPtLoad=Yes
# ... 5 like lines cut
   Frame=367   StationType=MaxStaSpcg   MaxStaSpcg=0.5   AddAtElmInt=Yes   AddAtPtLoad=Yes
   Frame=368   StationType=MaxStaSpcg   MaxStaSpcg=0.5   AddAtElmInt=Yes   AddAtPtLoad=Yes
   Frame=369   StationType=MaxStaSpcg   MaxStaSpcg=0.5   AddAtElmInt=Yes   AddAtPtLoad=Yes
   Frame=370   StationType=MaxStaSpcg   MaxStaSpcg=0.5   AddAtElmInt=Yes   AddAtPtLoad=Yes
 
TABLE:  "FRAME SECTION ASSIGNMENTS"
   Frame=315   AutoSelect=N.A.   AnalSect=TB   MatProp=Default
   Frame=316   AutoSelect=N.A.   AnalSect=TB   MatProp=Default
   Frame=317   AutoSelect=N.A.   AnalSect=TB   MatProp=Default
   Frame=318   AutoSelect=N.A.   AnalSect=TB   MatProp=Default
   Frame=319   AutoSelect=N.A.   AnalSect=TB   MatProp=Default
   Frame=320   AutoSelect=N.A.   AnalSect=TB   MatProp=Default
   Frame=321   AutoSelect=N.A.   AnalSect=TB   MatProp=Default
   Frame=322   AutoSelect=N.A.   AnalSect=TB   MatProp=Default
   Frame=323   AutoSelect=N.A.   AnalSect=TB   MatProp=Default
   Frame=324   AutoSelect=N.A.   AnalSect=TB   MatProp=Default
   Frame=325   AutoSelect=N.A.   AnalSect=TB   MatProp=Default
   Frame=326   AutoSelect=N.A.   AnalSect=TB   MatProp=Default
   Frame=327   AutoSelect=N.A.   AnalSect=TB   MatProp=Default
   Frame=328   AutoSelect=N.A.   AnalSect=TB   MatProp=Default
   Frame=329   AutoSelect=N.A.   AnalSect=TB   MatProp=Default
   Frame=330   AutoSelect=N.A.   AnalSect=LB   MatProp=Default
   Frame=331   AutoSelect=N.A.   AnalSect=LB   MatProp=Default
   Frame=332   AutoSelect=N.A.   AnalSect=LB   MatProp=Default
   Frame=333   AutoSelect=N.A.   AnalSect=LB   MatProp=Default
   Frame=334   AutoSelect=N.A.   AnalSect=LB   MatProp=Default
   Frame=335   AutoSelect=N.A.   AnalSect=LB   MatProp=Default
   Frame=336   AutoSelect=N.A.   AnalSect=LB   MatProp=Default
   Frame=337   AutoSelect=N.A.   AnalSect=LB   MatProp=Default
   Frame=338   AutoSelect=N.A.   AnalSect=LB   MatProp=Default
   Frame=339   AutoSelect=N.A.   AnalSect=LB   MatProp=Default
   Frame=340   AutoSelect=N.A.   AnalSect=LB   MatProp=Default
   Frame=341   AutoSelect=N.A.   AnalSect=LB   MatProp=Default
   Frame=342   AutoSelect=N.A.   AnalSect=EB   MatProp=Default
   Frame=343   AutoSelect=N.A.   AnalSect=Piles   MatProp=Default
   Frame=344   AutoSelect=N.A.   AnalSect=Piles   MatProp=Default
   Frame=345   AutoSelect=N.A.   AnalSect=EB   MatProp=Default
   Frame=346   AutoSelect=N.A.   AnalSect=Piles   MatProp=Default
   Frame=347   AutoSelect=N.A.   AnalSect=Piles   MatProp=Default
   Frame=348   AutoSelect=N.A.   AnalSect=EB   MatProp=Default
   Frame=349   AutoSelect=N.A.   AnalSect=Piles   MatProp=Default
   Frame=350   AutoSelect=N.A.   AnalSect=Piles   MatProp=Default
   Frame=351   AutoSelect=N.A.   AnalSect=EB   MatProp=Default
   Frame=352   AutoSelect=N.A.   AnalSect=Piles   MatProp=Default
   Frame=353   AutoSelect=N.A.   AnalSect=Piles   MatProp=Default
   Frame=354   AutoSelect=N.A.   AnalSect=EB   MatProp=Default
   Frame=355   AutoSelect=N.A.   AnalSect=Piles   MatProp=Default
   Frame=356   AutoSelect=N.A.   AnalSect=Piles   MatProp=Default
   Frame=357   AutoSelect=N.A.   AnalSect=Piles   MatProp=Default
   Frame=358   AutoSelect=N.A.   AnalSect=Piles   MatProp=Default
   Frame=359   AutoSelect=N.A.   AnalSect=Piles   MatProp=Default
   Frame=360   AutoSelect=N.A.   AnalSect=Piles   MatProp=Default
   Frame=361   AutoSelect=N.A.   AnalSect=Piles   MatProp=Default
   Frame=362   AutoSelect=N.A.   AnalSect=Piles   MatProp=Default
   Frame=363   AutoSelect=N.A.   AnalSect=Piles   MatProp=Default
   Frame=364   AutoSelect=N.A.   AnalSect=Piles   MatProp=Default
   Frame=365   AutoSelect=N.A.   AnalSect=Piles   MatProp=Default
   Frame=366   AutoSelect=N.A.   AnalSect=Piles   MatProp=Default
   Frame=367   AutoSelect=N.A.   AnalSect=EB-1   MatProp=Default
   Frame=368   AutoSelect=N.A.   AnalSect=EB-1   MatProp=Default
   Frame=369   AutoSelect=N.A.   AnalSect=EB-1   MatProp=Default
   Frame=370   AutoSelect=N.A.   AnalSect=EB-1   MatProp=Default
 
TABLE:  "FRAME SECTION PROPERTIES 01 - GENERAL"
   SectionName=EB   Material=BTCT   Shape=Rectangular   t3=1.2   t2=1.2   Area=1.44   TorsConst=0.292032   I33=0.1728   I22=0.1728   I23=0   AS2=1.2   AS3=1.2   S33Top=0.288   S33Bot=0.288   S22Left=0.288   S22Right=0.288   Z33=0.432 _
        Z22=0.432   R33=0.346410161513775   R22=0.346410161513776   CGOffset3=0   CGOffset2=0   EccV2=0   EccV3=0   Cw=0   Color=Cyan   FromFile=No   AMod=1   A2Mod=1   A3Mod=1   JMod=1   I2Mod=1   I3Mod=1   MMod=1   WMod=1
   SectionName=EB-1   Material=BTCT   Shape=Rectangular   t3=1.2   t2=1.2   Area=1.44   TorsConst=0.292032   I33=0.1728   I22=0.1728   I23=0   AS2=1.2   AS3=1.2   S33Top=0.288   S33Bot=0.288   S22Left=0.288   S22Right=0.288   Z33=0.432 _
        Z22=0.432   R33=0.346410161513776   R22=0.346410161513776   CGOffset3=0   CGOffset2=0   EccV2=0   EccV3=0   Cw=0   Color=Red   FromFile=No   AMod=1   A2Mod=1   A3Mod=1   JMod=1   I2Mod=1   I3Mod=1   MMod=1   WMod=1
   SectionName=LB   Material=BTCT   Shape=Rectangular   t3=1.4   t2=1.2   Area=1.68   TorsConst=0.390531358600583   I33=0.2744   I22=0.2016   I23=0   AS2=1.4   AS3=1.4   S33Top=0.392   S33Bot=0.392   S22Left=0.336   S22Right=0.336 _
        Z33=0.588   Z22=0.504   R33=0.404145188432738   R22=0.346410161513776   CGOffset3=0   CGOffset2=0   EccV2=0   EccV3=0   Cw=0   Color=Green   FromFile=No   AMod=1   A2Mod=1   A3Mod=1   JMod=1   I2Mod=1   I3Mod=1   MMod=1   WMod=1
   SectionName=Piles   Material=BTCTCOC   Shape=Pipe   t3=1   tw=0.13   Area=0.355314129121006   TorsConst=0.0687355182784585   I33=0.0343677591392293   I22=0.0343677591392293   I23=0   AS2=0.18028200282862   AS3=0.18028200282862 _
        S33Top=0.0687355182784585   S33Bot=0.0687355182784585   S22Left=0.0687355182784585   S22Right=0.0687355182784585   Z33=0.0991293333333333   Z22=0.0991293333333333   R33=0.31100643080168   R22=0.31100643080168   CGOffset3=0 _
        CGOffset2=0   EccV2=0   EccV3=0   Cw=0   Color=Magenta   FromFile=No   AMod=1   A2Mod=1   A3Mod=1   JMod=1   I2Mod=1   I3Mod=1   MMod=1   WMod=1
   SectionName=TB   Material=BTCT   Shape=Rectangular   t3=1.4   t2=1.2   Area=1.68   TorsConst=0.390531358600583   I33=0.2744   I22=0.2016   I23=0   AS2=1.4   AS3=1.4   S33Top=0.392   S33Bot=0.392   S22Left=0.336   S22Right=0.336 _
        Z33=0.588   Z22=0.504   R33=0.404145188432738   R22=0.346410161513776   CGOffset3=0   CGOffset2=0   EccV2=0   EccV3=0   Cw=0   Color=Blue   FromFile=No   AMod=1   A2Mod=1   A3Mod=1   JMod=1   I2Mod=1   I3Mod=1   MMod=1   WMod=1
 
TABLE:  "FRAME SECTION PROPERTIES 02 - CONCRETE COLUMN"
   SectionName=EB   RebarMatL=A706   RebarMatC=A706   ReinfConfig=Rectangular   LatReinf=Ties   Cover=0.05   NumBars3Dir=2   NumBars2Dir=2   BarSizeL=12d   BarSizeC=10d   SpacingC=0.1   NumCBars2=2   NumCBars3=2   ReinfType=Design
   SectionName=EB-1   RebarMatL=A706   RebarMatC=A706   ReinfConfig=Rectangular   LatReinf=Ties   Cover=0.05   NumBars3Dir=2   NumBars2Dir=2   BarSizeL=12d   BarSizeC=10d   SpacingC=0.1   NumCBars2=2   NumCBars3=2   ReinfType=Design
   SectionName=LB   RebarMatL=A706   RebarMatC=A706   ReinfConfig=Rectangular   LatReinf=Ties   Cover=0.05   NumBars3Dir=2   NumBars2Dir=2   BarSizeL=12d   BarSizeC=10d   SpacingC=0.1   NumCBars2=2   NumCBars3=2   ReinfType=Design
   SectionName=TB   RebarMatL=A706   RebarMatC=A706   ReinfConfig=Rectangular   LatReinf=Ties   Cover=0.05   NumBars3Dir=2   NumBars2Dir=2   BarSizeL=12d   BarSizeC=10d   SpacingC=0.1   NumCBars2=2   NumCBars3=2   ReinfType=Design
 
TABLE:  "FRAME SECTION PROPERTIES 13 - TIME DEPENDENT"
   SectionName=EB   TypeSize=Auto   AutoSFSize=1
   SectionName=EB-1   TypeSize=Auto   AutoSFSize=1
   SectionName=LB   TypeSize=Auto   AutoSFSize=1
   SectionName=Piles   TypeSize=Auto   AutoSFSize=1
   SectionName=TB   TypeSize=Auto   AutoSFSize=1
 
TABLE:  "FUNCTION - PLOT FUNCTIONS"
   PlotFunc="Input Energy"   Type=Energy   Component=Input   Mode=All
 
TABLE:  "FUNCTION - POWER SPECTRAL DENSITY - USER"
   Name=UNIFPSD   Frequency=0   Value=1
   Name=UNIFPSD   Frequency=1   Value=1
 
TABLE:  "FUNCTION - RESPONSE SPECTRUM - USER"
   Name=UNIFRS   Period=0   Accel=1   FuncDamp=0.05
   Name=UNIFRS   Period=1   Accel=1
 
TABLE:  "FUNCTION - STEADY STATE - USER"
   Name=UNIFSS   Frequency=0   Value=1
   Name=UNIFSS   Frequency=1   Value=1
 
TABLE:  "FUNCTION - TIME HISTORY - USER"
   Name=RAMPTH   Time=0   Value=0
   Name=RAMPTH   Time=1   Value=1
   Name=RAMPTH   Time=4   Value=1
   Name=UNIFTH   Time=0   Value=1
   Name=UNIFTH   Time=1   Value=1
 
TABLE:  "GRID LINES"
   CoordSys=GLOBAL   AxisDir=X   GridID=A   XRYZCoord=-10   LineType=Primary   LineColor=Gray8Dark   Visible=Yes   BubbleLoc=End   AllVisible=Yes   BubbleSize=0.9375
   CoordSys=GLOBAL   AxisDir=X   GridID=B   XRYZCoord=-9   LineType=Primary   LineColor=Gray8Dark   Visible=Yes   BubbleLoc=End
   CoordSys=GLOBAL   AxisDir=X   GridID=C   XRYZCoord=-4.5   LineType=Primary   LineColor=Gray8Dark   Visible=Yes   BubbleLoc=End
   CoordSys=GLOBAL   AxisDir=X   GridID=D   XRYZCoord=0   LineType=Primary   LineColor=Gray8Dark   Visible=Yes   BubbleLoc=End
   CoordSys=GLOBAL   AxisDir=X   GridID=E   XRYZCoord=4.5   LineType=Primary   LineColor=Gray8Dark   Visible=Yes   BubbleLoc=End
   CoordSys=GLOBAL   AxisDir=X   GridID=F   XRYZCoord=9   LineType=Primary   LineColor=Gray8Dark   Visible=Yes   BubbleLoc=End
   CoordSys=GLOBAL   AxisDir=X   GridID=G   XRYZCoord=10   LineType=Primary   LineColor=Gray8Dark   Visible=Yes   BubbleLoc=End
   CoordSys=GLOBAL   AxisDir=Y   GridID=1   XRYZCoord=-5.2   LineType=Primary   LineColor=Gray8Dark   Visible=Yes   BubbleLoc=Start
   CoordSys=GLOBAL   AxisDir=Y   GridID=2   XRYZCoord=-4.2   LineType=Primary   LineColor=Gray8Dark   Visible=Yes   BubbleLoc=Start
   CoordSys=GLOBAL   AxisDir=Y   GridID=3   XRYZCoord=0   LineType=Primary   LineColor=Gray8Dark   Visible=Yes   BubbleLoc=Start
   CoordSys=GLOBAL   AxisDir=Y   GridID=4   XRYZCoord=4.2   LineType=Primary   LineColor=Gray8Dark   Visible=Yes   BubbleLoc=Start
   CoordSys=GLOBAL   AxisDir=Y   GridID=5   XRYZCoord=4.8   LineType=Primary   LineColor=Gray8Dark   Visible=Yes   BubbleLoc=Start
   CoordSys=GLOBAL   AxisDir=Z   GridID=Z1   XRYZCoord=0   LineType=Primary   LineColor=Gray8Dark   Visible=Yes   BubbleLoc=End
   CoordSys=GLOBAL   AxisDir=Z   GridID=Z2   XRYZCoord=13   LineType=Primary   LineColor=Gray8Dark   Visible=Yes   BubbleLoc=End
 
TABLE:  "GROUPS 1 - DEFINITIONS"
   GroupName=ALL   Selection=Yes   SectionCut=Yes   Steel=Yes   Concrete=Yes   Aluminum=Yes   ColdFormed=Yes   Stage=Yes   Bridge=Yes   AutoSeismic=No   AutoWind=No   SelDesSteel=No   SelDesAlum=No   SelDesCold=No   MassWeight=Yes   Color=Red
   GroupName=Pile   Selection=Yes   SectionCut=Yes   Steel=Yes   Concrete=Yes   Aluminum=Yes   ColdFormed=Yes   Stage=Yes   Bridge=Yes   AutoSeismic=No   AutoWind=No   SelDesSteel=No   SelDesAlum=No   SelDesCold=No   MassWeight=Yes   Color=Gray8Dark
   GroupName=DN   Selection=Yes   SectionCut=Yes   Steel=Yes   Concrete=Yes   Aluminum=Yes   ColdFormed=Yes   Stage=Yes   Bridge=Yes   AutoSeismic=No   AutoWind=No   SelDesSteel=No   SelDesAlum=No   SelDesCold=No   MassWeight=Yes   Color=Yellow
   GroupName=Pile_Toe   Selection=Yes   SectionCut=Yes   Steel=Yes   Concrete=Yes   Aluminum=Yes   ColdFormed=Yes   Stage=Yes   Bridge=Yes   AutoSeismic=No   AutoWind=No   SelDesSteel=No   SelDesAlum=No   SelDesCold=No   MassWeight=Yes   Color=Green
   GroupName=Pile_Bend   Selection=Yes   SectionCut=Yes   Steel=Yes   Concrete=Yes   Aluminum=Yes   ColdFormed=Yes   Stage=Yes   Bridge=Yes   AutoSeismic=No   AutoWind=No   SelDesSteel=No   SelDesAlum=No   SelDesCold=No   MassWeight=Yes   Color=Cyan
   GroupName=Beam   Selection=Yes   SectionCut=Yes   Steel=Yes   Concrete=Yes   Aluminum=Yes   ColdFormed=Yes   Stage=Yes   Bridge=Yes   AutoSeismic=No   AutoWind=No   SelDesSteel=No   SelDesAlum=No   SelDesCold=No   MassWeight=Yes   Color=Blue
   GroupName=Piles   Selection=Yes   SectionCut=Yes   Steel=Yes   Concrete=Yes   Aluminum=Yes   ColdFormed=Yes   Stage=Yes   Bridge=Yes   AutoSeismic=No   AutoWind=No   SelDesSteel=No   SelDesAlum=No   SelDesCold=No   MassWeight=Yes   Color=Blue
   GroupName=Beams   Selection=Yes   SectionCut=Yes   Steel=Yes   Concrete=Yes   Aluminum=Yes   ColdFormed=Yes   Stage=Yes   Bridge=Yes   AutoSeismic=No   AutoWind=No   SelDesSteel=No   SelDesAlum=No   SelDesCold=No   MassWeight=Yes   Color=Green
 
TABLE:  "GROUPS 2 - ASSIGNMENTS"
 
TABLE:  "JOINT COORDINATES"
   Joint=294   CoordSys=GLOBAL   CoordType=Cartesian   XorR=-8.6   Y=-5   Z=0   SpecialJt=No   GUID=707bf9e2-a570-434f-b01a-f1b7261abdc0
   Joint=295   CoordSys=GLOBAL   CoordType=Cartesian   XorR=-8.6   Y=-3   Z=0   SpecialJt=No   GUID=ff3e7a89-15b6-49e7-ad8c-fa9ba0ab3587
   Joint=296   CoordSys=GLOBAL   CoordType=Cartesian   XorR=-4.3   Y=-5   Z=0   SpecialJt=No   GUID=a1ac0e12-e2e0-4b4c-b86c-fef6760ed764
   Joint=297   CoordSys=GLOBAL   CoordType=Cartesian   XorR=-4.3   Y=-3   Z=0   SpecialJt=No   GUID=25573795-cc82-4fec-98a5-626267ba376d
   Joint=298   CoordSys=GLOBAL   CoordType=Cartesian   XorR=0   Y=-5   Z=0   SpecialJt=No   GUID=b6754fb4-1aa5-4227-98f9-c6c2f1b828ec
   Joint=299   CoordSys=GLOBAL   CoordType=Cartesian   XorR=0   Y=-3   Z=0   SpecialJt=No   GUID=00e8c7d6-7511-42d1-91ef-447542f9bc5d
   Joint=300   CoordSys=GLOBAL   CoordType=Cartesian   XorR=4.3   Y=-5   Z=0   SpecialJt=No   GUID=753735a1-3fc0-401b-a476-40d6deca94c9
   Joint=301   CoordSys=GLOBAL   CoordType=Cartesian   XorR=4.3   Y=-3   Z=0   SpecialJt=No   GUID=63e8899f-76b0-483c-9b51-a97435622c84
   Joint=302   CoordSys=GLOBAL   CoordType=Cartesian   XorR=8.6   Y=-5   Z=0   SpecialJt=No   GUID=ad66c3e8-a0bd-4db6-87e8-958ce04daff9
   Joint=303   CoordSys=GLOBAL   CoordType=Cartesian   XorR=8.6   Y=-3   Z=0   SpecialJt=No   GUID=ee9e0341-75eb-4d0f-a021-0b9798ee4e34
   Joint=304   CoordSys=GLOBAL   CoordType=Cartesian   XorR=-8.6   Y=3   Z=0   SpecialJt=No   GUID=5db5719d-8657-43ec-b9ce-ae66c03c2373
   Joint=305   CoordSys=GLOBAL   CoordType=Cartesian   XorR=-4.3   Y=3   Z=0   SpecialJt=No   GUID=1026392e-560a-4feb-ac0a-04fe2f5aadf0
   Joint=306   CoordSys=GLOBAL   CoordType=Cartesian   XorR=0   Y=3   Z=0   SpecialJt=No   GUID=e6c4b228-828c-4780-8954-690f80e6cd67
   Joint=307   CoordSys=GLOBAL   CoordType=Cartesian   XorR=4.3   Y=3   Z=0   SpecialJt=No   GUID=7e58ef20-ec37-43b6-8d3b-fae5b049b7a1
   Joint=308   CoordSys=GLOBAL   CoordType=Cartesian   XorR=8.6   Y=3   Z=0   SpecialJt=No   GUID=d4d411ac-5683-43fd-acb6-1e3d33b93639
   Joint=309   CoordSys=GLOBAL   CoordType=Cartesian   XorR=-8.6   Y=5   Z=0   SpecialJt=No   GUID=da2a86e9-64a0-4415-95ac-30552edba89a
   Joint=310   CoordSys=GLOBAL   CoordType=Cartesian   XorR=-4.3   Y=5   Z=0   SpecialJt=No   GUID=5162e7d4-3f72-4e77-a778-eb99b3d90180
   Joint=311   CoordSys=GLOBAL   CoordType=Cartesian   XorR=0   Y=5   Z=0   SpecialJt=No   GUID=2b30668b-1fda-474a-8a7f-a52b6e3db897
   Joint=312   CoordSys=GLOBAL   CoordType=Cartesian   XorR=4.3   Y=5   Z=0   SpecialJt=No   GUID=4fa190e9-0425-49f6-8f5d-b5247797198e
   Joint=313   CoordSys=GLOBAL   CoordType=Cartesian   XorR=8.6   Y=5   Z=0   SpecialJt=No   GUID=ae89693e-cf51-48bc-bfe2-fc714491cdd5
   Joint=314   CoordSys=GLOBAL   CoordType=Cartesian   XorR=-10   Y=-3   Z=0   SpecialJt=No   GUID=c78cecf0-b484-4caa-8ca2-c5e9e3b7686d
   Joint=315   CoordSys=GLOBAL   CoordType=Cartesian   XorR=-10   Y=3   Z=0   SpecialJt=No   GUID=97123067-e8a5-4f73-a8bd-e93fe3d29384
   Joint=316   CoordSys=GLOBAL   CoordType=Cartesian   XorR=10   Y=-3   Z=0   SpecialJt=No   GUID=651548cb-83a0-45f3-bc67-2756fa2cb4c0
   Joint=317   CoordSys=GLOBAL   CoordType=Cartesian   XorR=10   Y=3   Z=0   SpecialJt=No   GUID=839794e7-06c9-4fcf-8dab-ec06d3c401d9
   Joint=318   CoordSys=GLOBAL   CoordType=Cartesian   XorR=-8.6   Y=-3   Z=-3   SpecialJt=No   GUID=5113758b-5a7f-4015-8f3b-5916d567e5f7
   Joint=319   CoordSys=GLOBAL   CoordType=Cartesian   XorR=-8.6   Y=-3   Z=-16.0515059890361   SpecialJt=No   GUID=6704b8ea-8cd9-450e-962d-eaee65ddc07f
   Joint=320   CoordSys=GLOBAL   CoordType=Cartesian   XorR=-8.6   Y=-3   Z=-18.2   SpecialJt=No   GUID=ef979bb6-fc62-49fd-9b08-4a5a22e96dda
   Joint=321   CoordSys=GLOBAL   CoordType=Cartesian   XorR=-4.3   Y=-3   Z=-3   SpecialJt=No   GUID=2f1a3049-348e-409c-ab5a-176420481d49
   Joint=322   CoordSys=GLOBAL   CoordType=Cartesian   XorR=-4.3   Y=-3   Z=-16.0515059890361   SpecialJt=No   GUID=57a1038b-66c4-4fd8-86c6-e305c3aa24b6
   Joint=323   CoordSys=GLOBAL   CoordType=Cartesian   XorR=-4.3   Y=-3   Z=-18.2   SpecialJt=No   GUID=a8a2358f-bfea-4ff0-a528-9aa9b6ca5006
   Joint=324   CoordSys=GLOBAL   CoordType=Cartesian   XorR=0   Y=-3   Z=-3   SpecialJt=No   GUID=c5882173-e418-4a42-b9cf-20d4bed3121b
   Joint=325   CoordSys=GLOBAL   CoordType=Cartesian   XorR=0   Y=-3   Z=-16.0515059890361   SpecialJt=No   GUID=fcf5bda3-8dc1-460e-8f17-ad17cd899fe5
   Joint=326   CoordSys=GLOBAL   CoordType=Cartesian   XorR=0   Y=-3   Z=-18.2   SpecialJt=No   GUID=d65b9aef-a974-421e-ad6b-f17868151b90
   Joint=327   CoordSys=GLOBAL   CoordType=Cartesian   XorR=4.3   Y=-3   Z=-3   SpecialJt=No   GUID=371b62b1-5bf7-4729-b5ac-b1e034c303b1
   Joint=328   CoordSys=GLOBAL   CoordType=Cartesian   XorR=4.3   Y=-3   Z=-16.0515059890361   SpecialJt=No   GUID=8f439791-8669-4d3c-b1dc-0ac882d587d9
   Joint=329   CoordSys=GLOBAL   CoordType=Cartesian   XorR=4.3   Y=-3   Z=-18.2   SpecialJt=No   GUID=d0d7636f-e3e2-452e-92da-da2d018f039e
   Joint=330   CoordSys=GLOBAL   CoordType=Cartesian   XorR=8.6   Y=-3   Z=-3   SpecialJt=No   GUID=620d2d54-2569-44a8-ab94-553ab2eef820
   Joint=331   CoordSys=GLOBAL   CoordType=Cartesian   XorR=8.6   Y=-3   Z=-16.0515059890361   SpecialJt=No   GUID=74c4ff3d-a317-4e73-b865-08c5197ac29c
   Joint=332   CoordSys=GLOBAL   CoordType=Cartesian   XorR=8.6   Y=-3   Z=-18.2   SpecialJt=No   GUID=94979b2b-6260-470f-98d0-70ef3a05a0c6
   Joint=333   CoordSys=GLOBAL   CoordType=Cartesian   XorR=-8.6   Y=3   Z=-16.0515059890361   SpecialJt=No   GUID=56e2b0ec-1fe5-40a7-8bed-d6abb9d21120
   Joint=334   CoordSys=GLOBAL   CoordType=Cartesian   XorR=-8.6   Y=3   Z=-18.2   SpecialJt=No   GUID=d69c7895-0910-43ac-ad58-94b1667835e8
   Joint=335   CoordSys=GLOBAL   CoordType=Cartesian   XorR=-4.3   Y=3   Z=-16.0515059890361   SpecialJt=No   GUID=08d9f130-516e-44a8-b26a-18b80844c494
   Joint=336   CoordSys=GLOBAL   CoordType=Cartesian   XorR=-4.3   Y=3   Z=-18.2   SpecialJt=No   GUID=f41bd223-0783-4d30-82b4-aeffb32e31c4
   Joint=337   CoordSys=GLOBAL   CoordType=Cartesian   XorR=0   Y=3   Z=-16.0515059890361   SpecialJt=No   GUID=8439c5a6-71bd-445b-8059-72e87fc5c74d
   Joint=338   CoordSys=GLOBAL   CoordType=Cartesian   XorR=0   Y=3   Z=-18.2   SpecialJt=No   GUID=1eb7ffc2-370e-48bc-b957-253255a50ee6
   Joint=339   CoordSys=GLOBAL   CoordType=Cartesian   XorR=4.3   Y=3   Z=-16.0515059890361   SpecialJt=No   GUID=cbdf88ea-1ebb-4e79-9f31-779591d99e88
   Joint=340   CoordSys=GLOBAL   CoordType=Cartesian   XorR=4.3   Y=3   Z=-18.2   SpecialJt=No   GUID=06e3e138-0d50-4dda-8e2b-ee5a7a6a39bb
   Joint=341   CoordSys=GLOBAL   CoordType=Cartesian   XorR=8.6   Y=3   Z=-16.0515059890361   SpecialJt=No   GUID=73dc45cf-3281-48b6-a485-3109469c87d0
   Joint=342   CoordSys=GLOBAL   CoordType=Cartesian   XorR=8.6   Y=3   Z=-18.2   SpecialJt=No   GUID=1d12b5a4-dcc2-411d-827c-0ba8780cece7
   Joint=343   CoordSys=GLOBAL   CoordType=Cartesian   XorR=-10   Y=-5   Z=0   SpecialJt=No   GUID=32901442-1cf5-40b3-8dab-5e6bedf239ee
   Joint=344   CoordSys=GLOBAL   CoordType=Cartesian   XorR=10   Y=-5   Z=0   SpecialJt=No   GUID=fb99baa0-738f-407c-8a29-f7b36d489bb8
   Joint=345   CoordSys=GLOBAL   CoordType=Cartesian   XorR=-10   Y=5   Z=0   SpecialJt=No   GUID=7a5d2924-5c1d-41ec-8537-d414a1a87c0b
   Joint=346   CoordSys=GLOBAL   CoordType=Cartesian   XorR=10   Y=5   Z=0   SpecialJt=No   GUID=804052d6-e92c-4169-a578-284ecd7d98b9
 
TABLE:  "JOINT PATTERN DEFINITIONS"
   Pattern=Default
 
TABLE:  "JOINT RESTRAINT ASSIGNMENTS"
   Joint=319   U1=Yes   U2=Yes   U3=No   R1=Yes   R2=Yes   R3=Yes
   Joint=320   U1=No   U2=No   U3=Yes   R1=No   R2=No   R3=No
   Joint=322   U1=Yes   U2=Yes   U3=No   R1=Yes   R2=Yes   R3=Yes
   Joint=323   U1=No   U2=No   U3=Yes   R1=No   R2=No   R3=No
   Joint=325   U1=Yes   U2=Yes   U3=No   R1=Yes   R2=Yes   R3=Yes
   Joint=326   U1=No   U2=No   U3=Yes   R1=No   R2=No   R3=No
   Joint=328   U1=Yes   U2=Yes   U3=No   R1=Yes   R2=Yes   R3=Yes
   Joint=329   U1=No   U2=No   U3=Yes   R1=No   R2=No   R3=No
   Joint=331   U1=Yes   U2=Yes   U3=No   R1=Yes   R2=Yes   R3=Yes
   Joint=332   U1=No   U2=No   U3=Yes   R1=No   R2=No   R3=No
   Joint=333   U1=Yes   U2=Yes   U3=No   R1=Yes   R2=Yes   R3=Yes
   Joint=334   U1=No   U2=No   U3=Yes   R1=No   R2=No   R3=No
   Joint=335   U1=Yes   U2=Yes   U3=No   R1=Yes   R2=Yes   R3=Yes
   Joint=336   U1=No   U2=No   U3=Yes   R1=No   R2=No   R3=No
   Joint=337   U1=Yes   U2=Yes   U3=No   R1=Yes   R2=Yes   R3=Yes
   Joint=338   U1=No   U2=No   U3=Yes   R1=No   R2=No   R3=No
   Joint=339   U1=Yes   U2=Yes   U3=No   R1=Yes   R2=Yes   R3=Yes
   Joint=340   U1=No   U2=No   U3=Yes   R1=No   R2=No   R3=No
   Joint=341   U1=Yes   U2=Yes   U3=No   R1=Yes   R2=Yes   R3=Yes
   Joint=342   U1=No   U2=No   U3=Yes   R1=No   R2=No   R3=No
 
TABLE:  "LOAD CASE DEFINITIONS"
   Case=DEAD   Type=LinStatic   InitialCond=Zero   DesTypeOpt="Prog Det"   DesignType=Dead   DesActOpt="Prog Det"   DesignAct=Non-Composite   AutoType=None   RunCase=Yes
   Case=MODAL   Type=LinModal   InitialCond=Zero   DesTypeOpt="Prog Det"   DesignType=Other   DesActOpt="Prog Det"   DesignAct=Other   AutoType=None   RunCase=Yes
   Case=LL   Type=LinStatic   InitialCond=Zero   DesTypeOpt="Prog Det"   DesignType=Live   DesActOpt="Prog Det"   DesignAct="Short-Term Composite"   AutoType=None   RunCase=Yes
 
TABLE:  "LOAD PATTERN DEFINITIONS"
   LoadPat=DEAD   DesignType=Dead   SelfWtMult=1
   LoadPat=LL   DesignType=Live   SelfWtMult=0
 
TABLE:  "MASS SOURCE"
   MassSource=MSSSRC1   Elements=Yes   Masses=Yes   Loads=No   IsDefault=Yes
 
TABLE:  "MATERIAL PROPERTIES 01 - GENERAL"
   Material=A706   Type=Rebar   SymType=Uniaxial   TempDepend=No   Color=Gray8Dark   GUID=30185aab-1311-4f4b-9ffe-ddad707d22d9   Notes="ASTM A706 added 8/23/2025 4:27:57 PM"
   Material=BTCT   Type=Concrete   SymType=Isotropic   TempDepend=No   Color=Blue   Notes="Concrete added 24-Feb-23 16:30:01"
   Material=BTCTCOC   Type=Concrete   SymType=Isotropic   TempDepend=No   Color=Blue   Notes="Concrete added 24-Feb-23 16:30:01"
   Material=Steel   Type=Steel   SymType=Isotropic   TempDepend=No   Color=Magenta   GUID=2f952889-4898-4964-97a4-5fb5c5008d33   Notes="Steel added 8/24/2025 2:51:43 PM"
   Material=Tendon   Type=Tendon   SymType=Uniaxial   TempDepend=No   Color=Yellow   GUID=7dfcd093-823e-4b3a-b96f-35d5bcaf456f   Notes="Tendon added 8/24/2025 2:51:43 PM"
 
TABLE:  "MATERIAL PROPERTIES 02 - BASIC MECHANICAL PROPERTIES"
   Material=A706   UnitWeight=7.84904757236607   UnitMass=0.800380070686609   E1=20389019.1580383   A1=1.16999994421006E-05
   Material=BTCT   UnitWeight=2.40276966501002   UnitMass=0.245014307353044   E1=2900000   G12=1208333.33333333   U12=0.2   A1=9.9E-06
   Material=BTCTCOC   UnitWeight=2.40276966501002   UnitMass=0.245014307353044   E1=3800000000   G12=1583333333.33333   U12=0.2   A1=9.9E-06
   Material=Steel   UnitWeight=7.84904757236607   UnitMass=0.800380070686609   E1=20389019.1580383   G12=7841930.44539935   U12=0.3   A1=1.17E-05
   Material=Tendon   UnitWeight=7.84904757236607   UnitMass=0.800380070686609   E1=20037484.3449687   A1=1.16999994421006E-05
 
TABLE:  "MATERIAL PROPERTIES 03A - STEEL DATA"
   Material=Steel   Fy=35153.4813069626   Fu=45699.5256990514   EffFy=38668.8294376589   EffFu=50269.4782689565   SSCurveOpt=Simple   SSHysType=Kinematic   SHard=0.015   SMax=0.11   SRup=0.17   FinalSlope=-0.1   CoupModType="Von Mises"
 
TABLE:  "MATERIAL PROPERTIES 03B - CONCRETE DATA"
   Material=BTCT   Fc=2812.27850455701   eFc=2812.27850455701   LtWtConc=No   SSCurveOpt=Mander   SSHysType=Takeda   SFc=0.002   SCap=0.005   FinalSlope=-0.1   FAngle=0   DAngle=0   CoupModType="Modified Darwin-Pecknold"
   Material=BTCTCOC   Fc=2812.27850455701   eFc=2812.27850455701   LtWtConc=No   SSCurveOpt=Mander   SSHysType=Takeda   SFc=0.002   SCap=0.005   FinalSlope=-0.1   FAngle=0   DAngle=0   CoupModType="Modified Darwin-Pecknold"
 
TABLE:  "MATERIAL PROPERTIES 03E - REBAR DATA"
   Material=A706   Fy=42184.1775683551   Fu=56245.5700911402   EffFy=46402.5953251907   EffFu=61870.1271002542   SSCurveOpt=Simple   SSHysType=Kinematic   SHard=0.011   SCap=0.11   FinalSlope=-0.1   UseCTDef=No   CoupModType="Von Mises"
 
TABLE:  "MATERIAL PROPERTIES 03F - TENDON DATA"
   Material=Tendon   Fy=172322.365366731   Fu=189828.799057598   SSCurveOpt="270 ksi"   SSHysType=Kinematic   FinalSlope=-0.1   CoupModType="Von Mises"
 
TABLE:  "MATERIAL PROPERTIES 03J - COUPLED NONLINEAR VON MISES DATA"
   Material=A706   YieldStress=46402.5953251907   LinIsoHard=No   LinKinHard=No   NLIsoSaHard=No
   Material=Steel   YieldStress=38668.8294376589   LinIsoHard=No   LinKinHard=No   NLIsoSaHard=No
   Material=Tendon   YieldStress=172322.365366731   LinIsoHard=No   LinKinHard=No   NLIsoSaHard=No
 
TABLE:  "MATERIAL PROPERTIES 06 - DAMPING PARAMETERS"
   Material=A706   ModalRatio=0   VisMass=0   VisStiff=0   HysMass=0   HysStiff=0
   Material=BTCT   ModalRatio=0   VisMass=0   VisStiff=0   HysMass=0   HysStiff=0
   Material=BTCTCOC   ModalRatio=0   VisMass=0   VisStiff=0   HysMass=0   HysStiff=0
   Material=Steel   ModalRatio=0   VisMass=0   VisStiff=0   HysMass=0   HysStiff=0
   Material=Tendon   ModalRatio=0   VisMass=0   VisStiff=0   HysMass=0   HysStiff=0
 
TABLE:  "MATERIAL PROPERTIES 09 - ACCEPTANCE CRITERIA"
   Material=A706   IOTens=0.01   LSTens=0.02   CPTens=0.05   IOComp=-0.005   LSComp=-0.01   CPComp=-0.02
   Material=BTCT   IOTens=0.01   LSTens=0.02   CPTens=0.05   IOComp=-0.003   LSComp=-0.006   CPComp=-0.015   IgnoreTens=Yes
   Material=BTCTCOC   IOTens=0.01   LSTens=0.02   CPTens=0.05   IOComp=-0.003   LSComp=-0.006   CPComp=-0.015   IgnoreTens=Yes
   Material=Steel   IOTens=0.01   LSTens=0.02   CPTens=0.05   IOComp=-0.005   LSComp=-0.01   CPComp=-0.02
   Material=Tendon   IOTens=0.015   LSTens=0.023   CPTens=0.03   IOComp=-0.015   LSComp=-0.023   CPComp=-0.03
 
TABLE:  "OPTIONS - COLORS - DISPLAY"
   DeviceType=Screen   Points=Blue   LinesFrame=Blue   LinesFrmDL=Blue   LinesCable=Green   LinesTendon=Green   SpringLinks=Green   Restraints=Green   Releases=Green   Axes=Cyan   Text=Black   ShadowLines=Gray8Dark   GuideLines=Gray8Dark _
        Highlight=Red   Selection=10504778   AreaFillBot=Red   AreaFillTop=16744703   AreaFillSd=Red   AreaEdge=DarkRed   SolidF1=Red   SolidF2=Blue   SolidF3=Green   SolidF4=Yellow   SolidF5=White   SolidF6=Cyan   SolidEdge=DarkRed _
        Floor=Gray4   Background=White   BGLowLeft=White   BGLowRight=White   BGUpRight=White   Darkness=0.5
   DeviceType=Printer   Points=Gray8Dark   LinesFrame=Black   LinesFrmDL=Gray4   LinesCable=Black   LinesTendon=Black   SpringLinks=Gray8Dark   Restraints=Gray8Dark   Releases=Gray4   Axes=Black   Text=Black   ShadowLines=Gray4 _
        GuideLines=Gray4   Highlight=Black   Selection=Black   AreaFillBot=Gray4   AreaFillTop=Gray8Dark   AreaFillSd=Gray4   AreaEdge=Black   SolidF1=Gray1Light   SolidF2=Gray2   SolidF3=Gray3   SolidF4=Gray4   SolidF5=Gray5 _
        SolidF6=Gray6   SolidEdge=Black   Floor=Gray4   Background=White   BGLowLeft=White   BGLowRight=White   BGUpRight=White   Darkness=0.5
   DeviceType="Color Printer"   Points=Blue   LinesFrame=Blue   LinesFrmDL=Blue   LinesCable=Green   LinesTendon=Green   SpringLinks=Green   Restraints=Green   Releases=Green   Axes=Cyan   Text=Black   ShadowLines=Gray8Dark _
        GuideLines=Gray8Dark   Highlight=Red   Selection=10504778   AreaFillBot=Red   AreaFillTop=16744703   AreaFillSd=Red   AreaEdge=DarkRed   SolidF1=Red   SolidF2=Blue   SolidF3=Green   SolidF4=Yellow   SolidF5=White   SolidF6=Cyan _
        SolidEdge=DarkRed   Floor=Gray4   Background=White   BGLowLeft=White   BGLowRight=White   BGUpRight=White   Darkness=0.5
 
TABLE:  "OPTIONS - COLORS - OUTPUT"
   DeviceType=Screen   Contour1=13107400   Contour2=6553828   Contour3=Red   Contour4=16639   Contour5=Orange   Contour6=43775   Contour7=54527   Contour8=Yellow   Contour9=65408   Contour10=Green   Contour11=8453888   Contour12=Cyan _
        Contour13=16755200   Contour14=16733440   Contour15=Blue   Transpare=0.5   Ratio1=Cyan   Ratio2=Green   Ratio3=Yellow   Ratio4=Orange   Ratio5=Red   RatioNotD=Gray4   RatioNotC=Red   RatioVal1=0.5   RatioVal2=0.7   RatioVal3=0.9 _
        RatioVal4=1   DFillPos=Blue   DFillNeg=Red   DFillRPos=Green   DFillRNeg=Green
   DeviceType=Printer   Contour1=Black   Contour2=3158064   Contour3=4210752   Contour4=5263440   Contour5=6316128   Contour6=7368816   Contour7=Gray8Dark   Contour8=Gray7   Contour9=Gray6   Contour10=Gray5   Contour11=Gray4 _
        Contour12=Gray3   Contour13=Gray2   Contour14=Gray1Light   Contour15=White   Transpare=0   Ratio1=Gray2   Ratio2=Gray4   Ratio3=Gray8Dark   Ratio4=4210752   Ratio5=Black   RatioNotD=Gray4   RatioNotC=Black   RatioVal1=0.5 _
        RatioVal2=0.7   RatioVal3=0.9   RatioVal4=1   DFillPos=Gray8Dark   DFillNeg=Gray8Dark   DFillRPos=4210752   DFillRNeg=4210752
   DeviceType="Color Printer"   Contour1=13107400   Contour2=6553828   Contour3=Red   Contour4=16639   Contour5=Orange   Contour6=43775   Contour7=54527   Contour8=Yellow   Contour9=65408   Contour10=Green   Contour11=8453888 _
        Contour12=Cyan   Contour13=16755200   Contour14=16733440   Contour15=Blue   Transpare=0   Ratio1=Cyan   Ratio2=Green   Ratio3=Yellow   Ratio4=Orange   Ratio5=Red   RatioNotD=Gray4   RatioNotC=Red   RatioVal1=0.5   RatioVal2=0.7 _
        RatioVal3=0.9   RatioVal4=1   DFillPos=Blue   DFillNeg=Red   DFillRPos=Green   DFillRNeg=Green
 
TABLE:  "OVERWRITES - CONCRETE DESIGN - CSA-A233-14"
   Frame=315   DesignSect="Program Determined"   FrameType="Program Determined"   RLLF=0   XLMajor=0   XLMinor=0   XKMajor=0   XKMinor=0   CmMajor=0   CmMinor=0   DbMajor=0   DbMinor=0   DsMajor=0   DsMinor=0   Rd=0   Ro=0   MaxAggSize=0
   Frame=316   DesignSect="Program Determined"   FrameType="Program Determined"   RLLF=0   XLMajor=0   XLMinor=0   XKMajor=0   XKMinor=0   CmMajor=0   CmMinor=0   DbMajor=0   DbMinor=0   DsMajor=0   DsMinor=0   Rd=0   Ro=0   MaxAggSize=0
   Frame=317   DesignSect="Program Determined"   FrameType="Program Determined"   RLLF=0   XLMajor=0   XLMinor=0   XKMajor=0   XKMinor=0   CmMajor=0   CmMinor=0   DbMajor=0   DbMinor=0   DsMajor=0   DsMinor=0   Rd=0   Ro=0   MaxAggSize=0
   Frame=318   DesignSect="Program Determined"   FrameType="Program Determined"   RLLF=0   XLMajor=0   XLMinor=0   XKMajor=0   XKMinor=0   CmMajor=0   CmMinor=0   DbMajor=0   DbMinor=0   DsMajor=0   DsMinor=0   Rd=0   Ro=0   MaxAggSize=0
   Frame=319   DesignSect="Program Determined"   FrameType="Program Determined"   RLLF=0   XLMajor=0   XLMinor=0   XKMajor=0   XKMinor=0   CmMajor=0   CmMinor=0   DbMajor=0   DbMinor=0   DsMajor=0   DsMinor=0   Rd=0   Ro=0   MaxAggSize=0
   Frame=320   DesignSect="Program Determined"   FrameType="Program Determined"   RLLF=0   XLMajor=0   XLMinor=0   XKMajor=0   XKMinor=0   CmMajor=0   CmMinor=0   DbMajor=0   DbMinor=0   DsMajor=0   DsMinor=0   Rd=0   Ro=0   MaxAggSize=0
   Frame=321   DesignSect="Program Determined"   FrameType="Program Determined"   RLLF=0   XLMajor=0   XLMinor=0   XKMajor=0   XKMinor=0   CmMajor=0   CmMinor=0   DbMajor=0   DbMinor=0   DsMajor=0   DsMinor=0   Rd=0   Ro=0   MaxAggSize=0
   Frame=322   DesignSect="Program Determined"   FrameType="Program Determined"   RLLF=0   XLMajor=0   XLMinor=0   XKMajor=0   XKMinor=0   CmMajor=0   CmMinor=0   DbMajor=0   DbMinor=0   DsMajor=0   DsMinor=0   Rd=0   Ro=0   MaxAggSize=0
   Frame=323   DesignSect="Program Determined"   FrameType="Program Determined"   RLLF=0   XLMajor=0   XLMinor=0   XKMajor=0   XKMinor=0   CmMajor=0   CmMinor=0   DbMajor=0   DbMinor=0   DsMajor=0   DsMinor=0   Rd=0   Ro=0   MaxAggSize=0
   Frame=324   DesignSect="Program Determined"   FrameType="Program Determined"   RLLF=0   XLMajor=0   XLMinor=0   XKMajor=0   XKMinor=0   CmMajor=0   CmMinor=0   DbMajor=0   DbMinor=0   DsMajor=0   DsMinor=0   Rd=0   Ro=0   MaxAggSize=0
   Frame=325   DesignSect="Program Determined"   FrameType="Program Determined"   RLLF=0   XLMajor=0   XLMinor=0   XKMajor=0   XKMinor=0   CmMajor=0   CmMinor=0   DbMajor=0   DbMinor=0   DsMajor=0   DsMinor=0   Rd=0   Ro=0   MaxAggSize=0
   Frame=326   DesignSect="Program Determined"   FrameType="Program Determined"   RLLF=0   XLMajor=0   XLMinor=0   XKMajor=0   XKMinor=0   CmMajor=0   CmMinor=0   DbMajor=0   DbMinor=0   DsMajor=0   DsMinor=0   Rd=0   Ro=0   MaxAggSize=0
   Frame=327   DesignSect="Program Determined"   FrameType="Program Determined"   RLLF=0   XLMajor=0   XLMinor=0   XKMajor=0   XKMinor=0   CmMajor=0   CmMinor=0   DbMajor=0   DbMinor=0   DsMajor=0   DsMinor=0   Rd=0   Ro=0   MaxAggSize=0
   Frame=328   DesignSect="Program Determined"   FrameType="Program Determined"   RLLF=0   XLMajor=0   XLMinor=0   XKMajor=0   XKMinor=0   CmMajor=0   CmMinor=0   DbMajor=0   DbMinor=0   DsMajor=0   DsMinor=0   Rd=0   Ro=0   MaxAggSize=0
   Frame=329   DesignSect="Program Determined"   FrameType="Program Determined"   RLLF=0   XLMajor=0   XLMinor=0   XKMajor=0   XKMinor=0   CmMajor=0   CmMinor=0   DbMajor=0   DbMinor=0   DsMajor=0   DsMinor=0   Rd=0   Ro=0   MaxAggSize=0
   Frame=330   DesignSect="Program Determined"   FrameType="Program Determined"   RLLF=0   XLMajor=0   XLMinor=0   XKMajor=0   XKMinor=0   CmMajor=0   CmMinor=0   DbMajor=0   DbMinor=0   DsMajor=0   DsMinor=0   Rd=0   Ro=0   MaxAggSize=0
   Frame=331   DesignSect="Program Determined"   FrameType="Program Determined"   RLLF=0   XLMajor=0   XLMinor=0   XKMajor=0   XKMinor=0   CmMajor=0   CmMinor=0   DbMajor=0   DbMinor=0   DsMajor=0   DsMinor=0   Rd=0   Ro=0   MaxAggSize=0
   Frame=332   DesignSect="Program Determined"   FrameType="Program Determined"   RLLF=0   XLMajor=0   XLMinor=0   XKMajor=0   XKMinor=0   CmMajor=0   CmMinor=0   DbMajor=0   DbMinor=0   DsMajor=0   DsMinor=0   Rd=0   Ro=0   MaxAggSize=0
   Frame=333   DesignSect="Program Determined"   FrameType="Program Determined"   RLLF=0   XLMajor=0   XLMinor=0   XKMajor=0   XKMinor=0   CmMajor=0   CmMinor=0   DbMajor=0   DbMinor=0   DsMajor=0   DsMinor=0   Rd=0   Ro=0   MaxAggSize=0
   Frame=334   DesignSect="Program Determined"   FrameType="Program Determined"   RLLF=0   XLMajor=0   XLMinor=0   XKMajor=0   XKMinor=0   CmMajor=0   CmMinor=0   DbMajor=0   DbMinor=0   DsMajor=0   DsMinor=0   Rd=0   Ro=0   MaxAggSize=0
# ... 16 like lines cut
 
TABLE:  "PREFERENCES - ALUMINUM DESIGN - AA 2015"
   THDesign=Envelopes   SRatioLimit=1   Provision=ASD   LatFact=1.33333333333333   UseLatFact=No   Bridge=No   OmegaTy=1.65   OmegaTr=1.95   OmegaC=1.65   OmegaBo=1.65   OmegaBr=1.95   OmegaVo=1.65   OmegaVr=1.95
 
TABLE:  "PREFERENCES - COLD FORMED DESIGN - AISI-ASD96"
   THDesign=Envelopes   FrameType="Braced Frame"   SRatioLimit=1   MaxIter=1   OmegaBS=1.67   OmegaBUS=1.67   OmegaBLTB=1.67   OmegaVS=1.67   OmegaVNS=1.5   OmegaT=1.67   OmegaC=1.8
 
TABLE:  "PREFERENCES - CONCRETE DESIGN - CSA-A233-14"
   THDesign=Envelopes   NumCurves=24   NumPoints=11   MinEccen=Yes   BCCDesign=Yes   CTorsion=Yes   PatLLF=0.75   UFLimit=0.95   PhiS=0.85   PhiC=0.65
 
TABLE:  "PREFERENCES - CONCRETE SHELL DESIGN - EUROCODE 2-2004"
   Country="CEN Default"   GammaS=1.15   GammaC=1.5   AlphaCC=1
 
TABLE:  "PREFERENCES - DIMENSIONAL"
   MergeTol=0.001   FineGrid=0.25   Nudge=0.25   SelectTol=3   SnapTol=12   SLineThick=1   PLineThick=4   MaxFont=8   MinFont=3   AutoZoom=10   ShrinkFact=70   TextFileLen=240
 
TABLE:  "PREFERENCES - STEEL DESIGN - AISC 360-10"
   THDesign=Envelopes   FrameType=SMF   PatLLF=0.75   SRatioLimit=0.95   MaxIter=1   SDC=D   SeisCode=No   SeisLoad=No   ImpFactor=1   SystemRho=1   SystemSds=0.5   SystemR=8   SystemCd=5.5   Omega0=3   Provision=LRFD _
        AMethod="Direct Analysis"   SOMethod="General 2nd Order"   SRMethod="Tau-b Fixed"   NLCoeff=0.002   PhiB=0.9   PhiC=0.9   PhiTY=0.9   PhiTF=0.75   PhiV=0.9   PhiVRolledI=1   PhiVT=0.9   PlugWeld=Yes   HSSWelding=ERW   HSSReduceT=No _
        CheckDefl=No   DLRat=120   SDLAndLLRat=120   LLRat=360   TotalRat=240   NetRat=240
 
TABLE:  "PROGRAM CONTROL"
   ProgramName=SAP2000   Version=24.0.0   CurrUnits="Tonf, m, C"   SteelCode="AISC 360-10"   ConcCode="CSA A23.3-14"   AlumCode="AA 2015"   ColdCode=AISI-ASD96   RegenHinge=Yes
 
TABLE:  "PROJECT INFORMATION"
   Item="Company Name"   Data=po
   Item="Client Name"
   Item="Project Name"
   Item="Project Number"
   Item="Model Name"
   Item="Model Description"
   Item="Revision Number"
   Item="Frame Type"
   Item=Engineer
   Item=Checker
   Item=Supervisor
   Item="Issue Code"
   Item="Design Code"
 
TABLE:  "REBAR SIZES"
   RebarID=#2   Area=3.2258E-05   Diameter=0.00635
   RebarID=#3   Area=7.09675996154547E-05   Diameter=0.009525
   RebarID=#4   Area=0.000129032001922727   Diameter=0.0127
   RebarID=#5   Area=0.000199999601538181   Diameter=0.015875
   RebarID=#6   Area=0.000283870398461819   Diameter=0.01905
   RebarID=#7   Area=0.000387096015381813   Diameter=0.022225
   RebarID=#8   Area=0.000509676413843632   Diameter=0.0254
   RebarID=#9   Area=0.00064516   Diameter=0.0286512005329132
   RebarID=#10   Area=0.00081935318769455   Diameter=0.0322579995155334
   RebarID=#11   Area=0.00100644956308365   Diameter=0.0358139991521835
   RebarID=#14   Area=0.00145161   Diameter=0.0430021989583969
   RebarID=#18   Area=0.00258064   Diameter=0.0573277992248535
   RebarID=10M   Area=0.000100000004162606   Diameter=0.0113000003604438
   RebarID=15M   Area=0.000200000008325212   Diameter=0.0160000002402959
   RebarID=20M   Area=0.000300000012487818   Diameter=0.0195000002928606
   RebarID=25M   Area=0.000500000020813031   Diameter=0.0252000011414055
   RebarID=30M   Area=0.000700000029138243   Diameter=0.0299000000675832
   RebarID=35M   Area=0.00100000004162606   Diameter=0.0357000012990997
   RebarID=45M   Area=0.00150000006243909   Diameter=0.0437000014192476
   RebarID=55M   Area=0.00250000010406515   Diameter=0.056400002372922
   RebarID=6d   Area=2.83000004150781E-05   Diameter=0.00600000009011096
   RebarID=8d   Area=5.03000013308514E-05   Diameter=0.00800000012014795
   RebarID=10d   Area=7.85000032676458E-05   Diameter=0.0100000001501849
   RebarID=12d   Area=0.000113000004703745   Diameter=0.0120000001802219
   RebarID=14d   Area=0.000154000006410413   Diameter=0.0140000002102589
   RebarID=16d   Area=0.000201000008366838   Diameter=0.0160000002402959
   RebarID=20d   Area=0.000314000013070583   Diameter=0.0200000003003699
   RebarID=25d   Area=0.000491000020438396   Diameter=0.0250000003754623
   RebarID=26d   Area=0.000531000022103439   Diameter=0.0260000003904808
   RebarID=28d   Area=0.000616000025641654   Diameter=0.0280000004205178
   RebarID=N12   Area=0.000113000004703745   Diameter=0.0120000001802219
   RebarID=N16   Area=0.000201000008366838   Diameter=0.0160000002402959
   RebarID=N20   Area=0.000314000013070583   Diameter=0.0200000003003699
   RebarID=N24   Area=0.00045200001881498   Diameter=0.0240000003604438
   RebarID=N28   Area=0.000616000025641654   Diameter=0.0280000004205178
   RebarID=N32   Area=0.000804000033467353   Diameter=0.0320000004805918
   RebarID=N36   Area=0.00102000004245858   Diameter=0.0360000005406658
 
TABLE:  "SOLID PROPERTY DEFINITIONS"
   SolidProp=Solid1   Material=BTCT   MatAngleA=0   MatAngleB=0   MatAngleC=0   InComp=Yes   Color=Gray8Dark
 
END TABLE DATA
