File D:\OneDrive\Nature-Inspired Optimization Algorithms\Multiobjectives\MOSFOA\MPJ_Sap\W02\MPJ_2.$2k was saved on m/d/yy at h:mm:ss
 
TABLE:  "ACTIVE DEGREES OF FREEDOM"
   UX=Yes   UY=Yes   UZ=Yes   RX=Yes   RY=Yes   RZ=Yes
 
TABLE:  "ANALYSIS OPTIONS"
   Solver=Advanced   SolverProc=Auto   Force32Bit=No   StiffCase=None   GeomMod=None   HingeOpt="In Elements"   NumAThreads=0   MaxFileSize=0   NumDThreads=0   NumRThreads=0   UseMMFiles="Program Determined"   AllowDiff=No
 
TABLE:  "AREA AUTO MESH ASSIGNMENTS"
   Area=199   MeshType="Number of Elements"   MeshGroup=ALL   Number1=3   Number2=3   LocalEdge=No   LocalFace=No   SuppEdge=No   SuppFace=No   SubMesh=No
   Area=200   MeshType="Number of Elements"   MeshGroup=ALL   Number1=3   Number2=3   LocalEdge=No   LocalFace=No   SuppEdge=No   SuppFace=No   SubMesh=No
   Area=201   MeshType="Number of Elements"   MeshGroup=ALL   Number1=3   Number2=3   LocalEdge=No   LocalFace=No   SuppEdge=No   SuppFace=No   SubMesh=No
   Area=202   MeshType="Number of Elements"   MeshGroup=ALL   Number1=3   Number2=3   LocalEdge=No   LocalFace=No   SuppEdge=No   SuppFace=No   SubMesh=No
   Area=203   MeshType="Number of Elements"   MeshGroup=ALL   Number1=3   Number2=3   LocalEdge=No   LocalFace=No   SuppEdge=No   SuppFace=No   SubMesh=No
   Area=204   MeshType="Number of Elements"   MeshGroup=ALL   Number1=3   Number2=3   LocalEdge=No   LocalFace=No   SuppEdge=No   SuppFace=No   SubMesh=No
   Area=205   MeshType="Number of Elements"   MeshGroup=ALL   Number1=3   Number2=3   LocalEdge=No   LocalFace=No   SuppEdge=No   SuppFace=No   SubMesh=No
   Area=206   MeshType="Number of Elements"   MeshGroup=ALL   Number1=3   Number2=3   LocalEdge=No   LocalFace=No   SuppEdge=No   SuppFace=No   SubMesh=No
   Area=207   MeshType="Number of Elements"   MeshGroup=ALL   Number1=3   Number2=3   LocalEdge=No   LocalFace=No   SuppEdge=No   SuppFace=No   SubMesh=No
   Area=208   MeshType="Number of Elements"   MeshGroup=ALL   Number1=3   Number2=3   LocalEdge=No   LocalFace=No   SuppEdge=No   SuppFace=No   SubMesh=No
   Area=209   MeshType="Number of Elements"   MeshGroup=ALL   Number1=3   Number2=3   LocalEdge=No   LocalFace=No   SuppEdge=No   SuppFace=No   SubMesh=No
   Area=210   MeshType="Number of Elements"   MeshGroup=ALL   Number1=3   Number2=3   LocalEdge=No   LocalFace=No   SuppEdge=No   SuppFace=No   SubMesh=No
   Area=211   MeshType="Number of Elements"   MeshGroup=ALL   Number1=3   Number2=3   LocalEdge=No   LocalFace=No   SuppEdge=No   SuppFace=No   SubMesh=No
   Area=212   MeshType="Number of Elements"   MeshGroup=ALL   Number1=3   Number2=3   LocalEdge=No   LocalFace=No   SuppEdge=No   SuppFace=No   SubMesh=No
   Area=213   MeshType="Number of Elements"   MeshGroup=ALL   Number1=3   Number2=3   LocalEdge=No   LocalFace=No   SuppEdge=No   SuppFace=No   SubMesh=No
   Area=214   MeshType="Number of Elements"   MeshGroup=ALL   Number1=3   Number2=3   LocalEdge=No   LocalFace=No   SuppEdge=No   SuppFace=No   SubMesh=No
   Area=215   MeshType="Number of Elements"   MeshGroup=ALL   Number1=3   Number2=3   LocalEdge=No   LocalFace=No   SuppEdge=No   SuppFace=No   SubMesh=No
   Area=216   MeshType="Number of Elements"   MeshGroup=ALL   Number1=3   Number2=3   LocalEdge=No   LocalFace=No   SuppEdge=No   SuppFace=No   SubMesh=No
   Area=217   MeshType="Number of Elements"   MeshGroup=ALL   Number1=3   Number2=3   LocalEdge=No   LocalFace=No   SuppEdge=No   SuppFace=No   SubMesh=No
   Area=218   MeshType="Number of Elements"   MeshGroup=ALL   Number1=3   Number2=3   LocalEdge=No   LocalFace=No   SuppEdge=No   SuppFace=No   SubMesh=No
# ... 20 like lines cut
 
TABLE:  "AREA LOADS - UNIFORM"
   Area=199   LoadPat=LL   CoordSys=GLOBAL   Dir=Gravity   UnifLoad=1.00034158457019
   Area=200   LoadPat=LL   CoordSys=GLOBAL   Dir=Gravity   UnifLoad=1.00034158457019
   Area=201   LoadPat=LL   CoordSys=GLOBAL   Dir=Gravity   UnifLoad=1.00034158457019
   Area=202   LoadPat=LL   CoordSys=GLOBAL   Dir=Gravity   UnifLoad=1.00034158457019
   Area=203   LoadPat=LL   CoordSys=GLOBAL   Dir=Gravity   UnifLoad=1.00034158457019
   Area=204   LoadPat=LL   CoordSys=GLOBAL   Dir=Gravity   UnifLoad=1.00034158457019
   Area=205   LoadPat=LL   CoordSys=GLOBAL   Dir=Gravity   UnifLoad=1.00034158457019
   Area=206   LoadPat=LL   CoordSys=GLOBAL   Dir=Gravity   UnifLoad=1.00034158457019
   Area=207   LoadPat=LL   CoordSys=GLOBAL   Dir=Gravity   UnifLoad=1.00034158457019
   Area=208   LoadPat=LL   CoordSys=GLOBAL   Dir=Gravity   UnifLoad=1.00034158457019
   Area=209   LoadPat=LL   CoordSys=GLOBAL   Dir=Gravity   UnifLoad=1.00034158457019
   Area=210   LoadPat=LL   CoordSys=GLOBAL   Dir=Gravity   UnifLoad=1.00034158457019
   Area=211   LoadPat=LL   CoordSys=GLOBAL   Dir=Gravity   UnifLoad=1.00034158457019
   Area=212   LoadPat=LL   CoordSys=GLOBAL   Dir=Gravity   UnifLoad=1.00034158457019
   Area=213   LoadPat=LL   CoordSys=GLOBAL   Dir=Gravity   UnifLoad=1.00034158457019
   Area=214   LoadPat=LL   CoordSys=GLOBAL   Dir=Gravity   UnifLoad=1.00034158457019
   Area=215   LoadPat=LL   CoordSys=GLOBAL   Dir=Gravity   UnifLoad=1.00034158457019
   Area=216   LoadPat=LL   CoordSys=GLOBAL   Dir=Gravity   UnifLoad=1.00034158457019
   Area=217   LoadPat=LL   CoordSys=GLOBAL   Dir=Gravity   UnifLoad=1.00034158457019
   Area=218   LoadPat=LL   CoordSys=GLOBAL   Dir=Gravity   UnifLoad=1.00034158457019
# ... 20 like lines cut
 
TABLE:  "AREA SECTION ASSIGNMENTS"
   Area=199   Section=Deck   MatProp=Default
   Area=200   Section=Deck   MatProp=Default
   Area=201   Section=Deck   MatProp=Default
   Area=202   Section=Deck   MatProp=Default
   Area=203   Section=Deck   MatProp=Default
   Area=204   Section=Deck   MatProp=Default
   Area=205   Section=Deck   MatProp=Default
   Area=206   Section=Deck   MatProp=Default
   Area=207   Section=Deck   MatProp=Default
   Area=208   Section=Deck   MatProp=Default
   Area=209   Section=Deck   MatProp=Default
   Area=210   Section=Deck   MatProp=Default
   Area=211   Section=Deck   MatProp=Default
   Area=212   Section=Deck   MatProp=Default
   Area=213   Section=Deck   MatProp=Default
   Area=214   Section=Deck   MatProp=Default
   Area=215   Section=Deck   MatProp=Default
   Area=216   Section=Deck   MatProp=Default
   Area=217   Section=Deck   MatProp=Default
   Area=218   Section=Deck   MatProp=Default
# ... 20 like lines cut
 
TABLE:  "AREA SECTION PROPERTIES"
   Section=Deck   Material=BTCT   MatAngle=0   AreaType=Shell   Type=Shell-Thin   DrillDOF=Yes   Thickness=0.3   BendThick=0.3   Color=Green   F11Mod=1   F22Mod=1   F12Mod=1   M11Mod=1   M22Mod=1   M12Mod=1   V13Mod=1   V23Mod=1   MMod=1 _
        WMod=1   Notes="Added 24-Feb-23 16:56:47"
 
TABLE:  "AREA SECTION PROPERTY DESIGN PARAMETERS"
   Section=Deck   RebarMat=None   RebarOpt=Default
 
TABLE:  "AREA SECTION PROPERTY - TIME DEPENDENT"
   Section=Deck   TypeSize=User   AutoSFSize=1   UserValSize=0.1
 
TABLE:  "AUTO COMBINATION OPTION DATA 01 - GENERAL"
   DesignType=Concrete   AutoGen=Yes
 
TABLE:  "AUTO COMBINATION OPTION DATA 02 - USER DATA"
   DesignType=Concrete   LSType=Strength   LCName=DEAD
   DesignType=Concrete   LSType=Strength   LCName=LL
 
TABLE:  "AUTO WAVE 3 - WAVE CHARACTERISTICS - GENERAL"
   WaveChar=Default   WaveType="From Theory"   KinFactor=1   SWaterDepth=45   WaveHeight=18   WavePeriod=12   WaveTheory=Linear
 
TABLE:  "CASE - MODAL 1 - GENERAL"
   Case=MODAL   ModeType=Eigen   MaxNumModes=12   MinNumModes=1   EigenShift=0   EigenCutoff=0   EigenTol=1E-09   AutoShift=Yes
 
TABLE:  "CASE - STATIC 1 - LOAD ASSIGNMENTS"
   Case=DEAD   LoadType="Load pattern"   LoadName=DEAD   LoadSF=1
   Case=LL   LoadType="Load pattern"   LoadName=LL   LoadSF=1
 
TABLE:  "COMBINATION DEFINITIONS"
   ComboName=COMB1   ComboType="Linear Add"   AutoDesign=No   CaseName=DEAD   ScaleFactor=1   SteelDesign=None   ConcDesign=Strength   AlumDesign=None   ColdDesign=None
   ComboName=COMB2   ComboType="Linear Add"   AutoDesign=No   CaseName=DEAD   ScaleFactor=1   SteelDesign=None   ConcDesign=Strength   AlumDesign=None   ColdDesign=None
   ComboName=COMB2   CaseName=LL   ScaleFactor=1
   ComboName=BAO   ComboType=Envelope   AutoDesign=No   CaseName=COMB1   ScaleFactor=1   SteelDesign=None   ConcDesign=Strength   AlumDesign=None   ColdDesign=None
   ComboName=BAO   CaseName=COMB2   ScaleFactor=1
   ComboName=DCON1   ComboType="Linear Add"   AutoDesign=Yes   CaseName=DEAD   ScaleFactor=1.4   SteelDesign=None   ConcDesign=Strength   AlumDesign=None   ColdDesign=None   GUID=bb4fff9a-98b5-44d1-9fde-34d92700a8e9   Notes="Dead Only; Strength"
   ComboName=DCON2   ComboType="Linear Add"   AutoDesign=Yes   CaseName=DEAD   ScaleFactor=1.25   SteelDesign=None   ConcDesign=Strength   AlumDesign=None   ColdDesign=None   GUID=505bcda7-6fac-4dd0-b03e-c591d1ffc6ce   Notes="Dead + Live; Strength"
   ComboName=DCON2   CaseName=LL   ScaleFactor=1.5
 
TABLE:  "CONNECTIVITY - AREA"
   Area=199   Joint1=687   Joint2=616   Joint3=575   Joint4=574   GUID=09569038-0e4b-4ab3-979c-626979205139
   Area=200   Joint1=574   Joint2=575   Joint3=577   Joint4=576   GUID=026df85a-2c61-4106-acb8-b9025671f220
   Area=201   Joint1=576   Joint2=577   Joint3=579   Joint4=578   GUID=a7d75f1c-6658-4114-b241-d21be8e02c23
   Area=202   Joint1=578   Joint2=579   Joint3=581   Joint4=580   GUID=40dae86f-8f36-4e40-85dd-2639fbb074d5
   Area=203   Joint1=580   Joint2=581   Joint3=583   Joint4=582   GUID=f5761ee6-dc9e-4e11-9384-b34da30f0fd8
   Area=204   Joint1=582   Joint2=583   Joint3=585   Joint4=584   GUID=0cb709e0-50fe-4acd-8fb2-5683c59a881d
   Area=205   Joint1=584   Joint2=585   Joint3=587   Joint4=586   GUID=44442e8a-9546-4cad-a218-a027c3f86d0c
   Area=206   Joint1=586   Joint2=587   Joint3=620   Joint4=688   GUID=f2de27f3-dcd6-409c-b46a-91123b69eae9
   Area=207   Joint1=616   Joint2=617   Joint3=588   Joint4=575   GUID=f9fbdea4-bf22-467b-887d-6d5c4cde5ca7
   Area=208   Joint1=575   Joint2=588   Joint3=589   Joint4=577   GUID=4b6c4a8d-953a-4741-8654-53c26476337a
   Area=209   Joint1=577   Joint2=589   Joint3=590   Joint4=579   GUID=5db2be89-158c-41ed-b3b5-c2abf6d84992
   Area=210   Joint1=579   Joint2=590   Joint3=591   Joint4=581   GUID=815e1d53-3350-4d8e-a332-22da423748f1
   Area=211   Joint1=581   Joint2=591   Joint3=592   Joint4=583   GUID=da1a0755-8957-46da-971d-258c48253d3c
   Area=212   Joint1=583   Joint2=592   Joint3=593   Joint4=585   GUID=8a3b05a0-bcfe-464c-ac7e-0e67e826146c
   Area=213   Joint1=585   Joint2=593   Joint3=594   Joint4=587   GUID=a8356a9a-374a-48d9-8faf-5cce4de9e550
   Area=214   Joint1=587   Joint2=594   Joint3=621   Joint4=620   GUID=3a4f3c69-543d-478d-8fa7-2a3b751afb17
   Area=215   Joint1=617   Joint2=618   Joint3=595   Joint4=588   GUID=abb1dfe1-5ffd-42b9-93cc-73accb6717a2
   Area=216   Joint1=588   Joint2=595   Joint3=596   Joint4=589   GUID=7f7224db-113c-4d89-b2d8-8f309c771d30
   Area=217   Joint1=589   Joint2=596   Joint3=597   Joint4=590   GUID=7b91431b-e292-466e-b849-1f5b42b2c274
   Area=218   Joint1=590   Joint2=597   Joint3=598   Joint4=591   GUID=b2d6d922-14fe-4728-b12c-8a4d8c51201b
   Area=219   Joint1=591   Joint2=598   Joint3=599   Joint4=592   GUID=53a33121-ee50-49f4-bfb1-c574e14fb07c
   Area=220   Joint1=592   Joint2=599   Joint3=600   Joint4=593   GUID=c5624361-c90a-4664-a6d1-d0b95dc35210
   Area=221   Joint1=593   Joint2=600   Joint3=601   Joint4=594   GUID=17f74e35-115c-4927-b94b-287683538a5c
   Area=222   Joint1=594   Joint2=601   Joint3=622   Joint4=621   GUID=ddda8dbc-5c47-43da-88f0-29b6a55824e2
   Area=223   Joint1=618   Joint2=619   Joint3=602   Joint4=595   GUID=369c436f-b16a-475a-93f9-9c7823ee6fdc
   Area=224   Joint1=595   Joint2=602   Joint3=603   Joint4=596   GUID=5ad3a3ba-32f5-4d77-a898-ce143a7fd436
   Area=225   Joint1=596   Joint2=603   Joint3=604   Joint4=597   GUID=1250bbb1-87bc-40e1-802e-40200f5a5046
   Area=226   Joint1=597   Joint2=604   Joint3=605   Joint4=598   GUID=12999392-d662-45f5-ba60-7a9569a5c55d
   Area=227   Joint1=598   Joint2=605   Joint3=606   Joint4=599   GUID=2e07ba7b-5dbd-4107-91c4-67aa1de11f97
   Area=228   Joint1=599   Joint2=606   Joint3=607   Joint4=600   GUID=7ae7ac7b-89cb-41d2-93b2-59517ae582f0
   Area=229   Joint1=600   Joint2=607   Joint3=608   Joint4=601   GUID=bcc8fe2c-05df-47cc-87aa-156ae1d820d8
   Area=230   Joint1=601   Joint2=608   Joint3=623   Joint4=622   GUID=8c7a6205-2db1-4df2-9243-00f085c740ed
   Area=231   Joint1=619   Joint2=689   Joint3=609   Joint4=602   GUID=2d6884d0-fa24-44f2-822f-7fd837871834
   Area=232   Joint1=602   Joint2=609   Joint3=610   Joint4=603   GUID=10f54617-c505-4915-8feb-4776218f4c7a
   Area=233   Joint1=603   Joint2=610   Joint3=611   Joint4=604   GUID=1fa68789-f76f-406c-b732-55e1df1cdece
   Area=234   Joint1=604   Joint2=611   Joint3=612   Joint4=605   GUID=a3e85803-dc23-4e40-9cb6-ebb27a3034b9
   Area=235   Joint1=605   Joint2=612   Joint3=613   Joint4=606   GUID=a32ac7c2-69d3-48d5-bdaa-0a593a3a75d0
   Area=236   Joint1=606   Joint2=613   Joint3=614   Joint4=607   GUID=a3c8395b-be46-4e6e-af85-1810f1ee29a9
   Area=237   Joint1=607   Joint2=614   Joint3=615   Joint4=608   GUID=c6079553-98ed-454c-9d28-0e774350779b
   Area=238   Joint1=608   Joint2=615   Joint3=690   Joint4=623   GUID=5ecd7ab3-f1ee-4a52-96c8-0cf9ac7c6136
 
TABLE:  "CONNECTIVITY - FRAME"
   Frame=658   JointI=574   JointJ=575   IsCurved=No   GUID=445d6105-c4b4-483e-8145-19d087b6b8e7
   Frame=659   JointI=576   JointJ=577   IsCurved=No   GUID=63c34c60-0258-499e-883f-8282fa0c6ba2
   Frame=660   JointI=578   JointJ=579   IsCurved=No   GUID=960f467a-50ac-4f34-b48a-3877d3784465
   Frame=661   JointI=580   JointJ=581   IsCurved=No   GUID=f3b19f69-de0a-4432-9880-f9c1b51f7130
   Frame=662   JointI=582   JointJ=583   IsCurved=No   GUID=6f4455f5-2d43-4605-95fa-efc166188139
   Frame=663   JointI=584   JointJ=585   IsCurved=No   GUID=826b8d5c-9409-42f9-bf8a-39a9856139c8
   Frame=664   JointI=586   JointJ=587   IsCurved=No   GUID=0fe59e2a-1063-4069-8d97-43144b3e5895
   Frame=665   JointI=575   JointJ=588   IsCurved=No   GUID=2a565e68-f777-4e81-80aa-97eeb4ec817d
   Frame=666   JointI=577   JointJ=589   IsCurved=No   GUID=9b1fd524-6ad6-4535-b822-299c2672a6c4
   Frame=667   JointI=579   JointJ=590   IsCurved=No   GUID=edbd309a-ce2e-4c85-8ad5-2895c1502311
   Frame=668   JointI=581   JointJ=591   IsCurved=No   GUID=f5c04e0d-677e-4596-8fd8-707e0485f31d
   Frame=669   JointI=583   JointJ=592   IsCurved=No   GUID=31d4c527-5887-4acb-aba6-9570fcea15f9
   Frame=670   JointI=585   JointJ=593   IsCurved=No   GUID=61929051-0fd1-47c1-9a61-3ebbdfdc268a
   Frame=671   JointI=587   JointJ=594   IsCurved=No   GUID=26e2a043-85f9-4d22-9d28-f24ca6afc2fa
   Frame=672   JointI=588   JointJ=595   IsCurved=No   GUID=8fc35403-8429-4912-af59-a46726bf8793
   Frame=673   JointI=589   JointJ=596   IsCurved=No   GUID=ae12dcf3-b731-4ac9-8afa-f780bb757785
   Frame=674   JointI=590   JointJ=597   IsCurved=No   GUID=1b26f6da-e251-4d0d-b749-25b77a67acf2
   Frame=675   JointI=591   JointJ=598   IsCurved=No   GUID=e48339c6-24fe-4260-87d4-adcb269e9179
   Frame=676   JointI=592   JointJ=599   IsCurved=No   GUID=a03c7715-938e-4b0c-b328-55a55d5b650e
   Frame=677   JointI=593   JointJ=600   IsCurved=No   GUID=24d5b37e-b7c2-4065-90c0-b1f6d7f12e52
   Frame=678   JointI=594   JointJ=601   IsCurved=No   GUID=cc0e0b6c-8027-4650-a424-396f3497c770
   Frame=679   JointI=595   JointJ=602   IsCurved=No   GUID=c1f6b1d5-c84c-43ec-a71e-d45412c4b7bc
   Frame=680   JointI=596   JointJ=603   IsCurved=No   GUID=9cbebf75-27f1-4390-a964-476d40ded2ad
   Frame=681   JointI=597   JointJ=604   IsCurved=No   GUID=ba2dfa1d-e0c8-42c3-a760-a97c2623ea92
   Frame=682   JointI=598   JointJ=605   IsCurved=No   GUID=b26e4011-1ed2-4a97-b8ae-92eaeb4b9a04
   Frame=683   JointI=599   JointJ=606   IsCurved=No   GUID=e6e96e5f-fd49-4e27-8a2b-c0dbad018172
   Frame=684   JointI=600   JointJ=607   IsCurved=No   GUID=4294d898-aec7-4719-b734-4cff277c68d8
   Frame=685   JointI=601   JointJ=608   IsCurved=No   GUID=7021777c-eda4-4157-b369-c8c0372379e3
   Frame=686   JointI=602   JointJ=609   IsCurved=No   GUID=71954125-e91f-49bc-a272-532fe75e9092
   Frame=687   JointI=603   JointJ=610   IsCurved=No   GUID=524a3897-9cd4-457a-9f11-9ccdb7a32aea
   Frame=688   JointI=604   JointJ=611   IsCurved=No   GUID=fb194e24-3515-413a-ae91-069ce16d8a02
   Frame=689   JointI=605   JointJ=612   IsCurved=No   GUID=3a6c3efa-919b-4469-aaa7-3108973b2c4a
   Frame=690   JointI=606   JointJ=613   IsCurved=No   GUID=087dd4f2-f8e8-4818-b59b-098a4535bad7
   Frame=691   JointI=607   JointJ=614   IsCurved=No   GUID=432e5e31-12fb-407e-a5db-6bfb8759b955
   Frame=692   JointI=608   JointJ=615   IsCurved=No   GUID=20dc6b48-2441-477d-81a6-5766d8a444b9
   Frame=693   JointI=616   JointJ=575   IsCurved=No   GUID=b2a39652-84ad-4208-a80f-2dd025b70fd7
   Frame=694   JointI=617   JointJ=588   IsCurved=No   GUID=755c54aa-74b9-4b2b-ab68-6ff74b8e0ef4
   Frame=695   JointI=618   JointJ=595   IsCurved=No   GUID=ae645ddb-6b97-404e-a965-82d06e2d33ab
   Frame=696   JointI=619   JointJ=602   IsCurved=No   GUID=66ea63b2-5496-4c22-9910-7864eb4583ac
   Frame=697   JointI=575   JointJ=577   IsCurved=No   GUID=95f96b4d-f8a4-4eab-9374-00afd237c16d
   Frame=698   JointI=588   JointJ=589   IsCurved=No   GUID=d15cee3b-8e3a-416e-ac84-a4d18f9264a2
   Frame=699   JointI=595   JointJ=596   IsCurved=No   GUID=fdcfd87b-c29d-4496-a8f1-dab063f5bc6e
   Frame=700   JointI=602   JointJ=603   IsCurved=No   GUID=a77f6bbd-b661-436a-8218-8f101a968d95
   Frame=701   JointI=577   JointJ=579   IsCurved=No   GUID=55739727-05ac-4148-bb48-42df93942519
   Frame=702   JointI=589   JointJ=590   IsCurved=No   GUID=db91703d-a6ff-4f7c-9b55-d18d42e8d4cf
   Frame=703   JointI=596   JointJ=597   IsCurved=No   GUID=4831ec02-768a-4591-ad4f-487ace090b0c
   Frame=704   JointI=603   JointJ=604   IsCurved=No   GUID=276bcab5-fb01-4988-9c41-52a0a4910d3f
   Frame=705   JointI=579   JointJ=581   IsCurved=No   GUID=729408d8-3d45-4149-b754-725f8e117e3d
   Frame=706   JointI=590   JointJ=591   IsCurved=No   GUID=dd7b3a5e-e074-4705-9897-9a66e2c07695
   Frame=707   JointI=597   JointJ=598   IsCurved=No   GUID=1daa5fc9-86c8-4c22-8e0b-9cc5f3837d02
   Frame=708   JointI=604   JointJ=605   IsCurved=No   GUID=cdc67511-d58a-4a6a-8a64-7a29af78743f
   Frame=709   JointI=581   JointJ=583   IsCurved=No   GUID=4c48fc2d-a9e4-4687-b409-65b8b0a79bcb
   Frame=710   JointI=591   JointJ=592   IsCurved=No   GUID=7647b459-a33b-48c9-9a2a-7a776e664802
   Frame=711   JointI=598   JointJ=599   IsCurved=No   GUID=dd18f4b8-1d99-4c6d-93eb-4c6580f5cea4
   Frame=712   JointI=605   JointJ=606   IsCurved=No   GUID=33c15cc9-2634-4691-8c17-94f5b8d1d0b9
   Frame=713   JointI=583   JointJ=585   IsCurved=No   GUID=fa3a8a85-d6cd-4717-8116-6323d5859262
   Frame=714   JointI=592   JointJ=593   IsCurved=No   GUID=dc22c9d6-6173-4ea1-8101-1103f74e341d
   Frame=715   JointI=599   JointJ=600   IsCurved=No   GUID=389a95a9-7536-4a1d-86df-2b0732683d3f
   Frame=716   JointI=606   JointJ=607   IsCurved=No   GUID=7fa8d64e-7331-4c63-afa0-fcccc179f281
   Frame=717   JointI=585   JointJ=587   IsCurved=No   GUID=fb0f3aed-40b7-4ea8-b48f-6c2ce44b3a12
   Frame=718   JointI=593   JointJ=594   IsCurved=No   GUID=ac340a63-e55d-499f-8d57-9e0f82711936
   Frame=719   JointI=600   JointJ=601   IsCurved=No   GUID=77651b3c-1bc8-4443-8093-2d771a3eb3f7
   Frame=720   JointI=607   JointJ=608   IsCurved=No   GUID=efbc01a9-a682-4a7d-83c2-aa0ac4359899
   Frame=721   JointI=587   JointJ=620   IsCurved=No   GUID=f559ef43-fd02-4b69-9eaa-db3ddb0d5c5d
   Frame=722   JointI=594   JointJ=621   IsCurved=No   GUID=69c38188-99d3-4fb4-bd80-43163434b283
   Frame=723   JointI=601   JointJ=622   IsCurved=No   GUID=43c69aff-2277-4931-b3fd-8450ce8c6722
   Frame=724   JointI=608   JointJ=623   IsCurved=No   GUID=d0b2a918-18f9-44e5-947e-e91d7dcf6856
   Frame=725   JointI=575   JointJ=624   IsCurved=No   GUID=45f902b1-1bb9-44e3-b1a8-cab1ff9b13b5
   Frame=726   JointI=624   JointJ=625   IsCurved=No   GUID=dc119dba-2e0a-47cf-a0be-41a1e85a507d
   Frame=727   JointI=625   JointJ=626   IsCurved=No   GUID=21c63800-453b-48ed-a768-365a03ef4df0
   Frame=728   JointI=577   JointJ=627   IsCurved=No   GUID=db872cdf-fbdd-4fe2-9be4-28c93f61cdb9
   Frame=729   JointI=627   JointJ=628   IsCurved=No   GUID=49f31bb5-acb9-42d1-acf3-9a854ad7c218
   Frame=730   JointI=628   JointJ=629   IsCurved=No   GUID=df22504b-3307-406f-b038-b072f95a388e
   Frame=731   JointI=579   JointJ=630   IsCurved=No   GUID=76068ab6-83df-4940-b47e-9a238d22d0a9
   Frame=732   JointI=630   JointJ=631   IsCurved=No   GUID=c99ab911-9d95-4160-b6ce-e322a079b88b
   Frame=733   JointI=631   JointJ=632   IsCurved=No   GUID=b10e9465-fd3a-48ea-87c3-0da6684887f3
   Frame=734   JointI=581   JointJ=633   IsCurved=No   GUID=94f3ec31-219b-4110-9873-1279be708bbf
   Frame=735   JointI=633   JointJ=634   IsCurved=No   GUID=91d45e69-0ddd-44e2-8249-79916ad1c4ca
   Frame=736   JointI=634   JointJ=635   IsCurved=No   GUID=24189678-0453-4ad1-b989-6f2fda5668eb
   Frame=737   JointI=583   JointJ=636   IsCurved=No   GUID=354df2ad-b91c-43b0-a9bc-9d0494cece0d
   Frame=738   JointI=636   JointJ=637   IsCurved=No   GUID=3a967542-8369-4f7e-aff9-206c7f6eec67
   Frame=739   JointI=637   JointJ=638   IsCurved=No   GUID=c73bcf03-5724-4d42-9a53-f1d355bb2df4
   Frame=740   JointI=585   JointJ=639   IsCurved=No   GUID=e8aabd69-8829-44ba-985b-0324ccddae51
   Frame=741   JointI=639   JointJ=640   IsCurved=No   GUID=c5f0fbba-10f4-4b22-b5c0-ae52ffb1677b
   Frame=742   JointI=640   JointJ=641   IsCurved=No   GUID=c78c2749-ff4c-479a-b1cc-f981aec34999
   Frame=743   JointI=587   JointJ=642   IsCurved=No   GUID=4ff1d58d-8c16-4142-b0f7-5829642c8fa8
   Frame=744   JointI=642   JointJ=643   IsCurved=No   GUID=9aaf7620-e4db-4087-8ce1-686ade18f387
   Frame=745   JointI=643   JointJ=644   IsCurved=No   GUID=9dfa00b7-a924-4d12-8f38-2608c2187e0a
   Frame=746   JointI=588   JointJ=645   IsCurved=No   GUID=88ea822f-ffe9-44e1-a9c0-91b72f2fe31e
   Frame=747   JointI=645   JointJ=646   IsCurved=No   GUID=d1b5074d-da24-4b86-965f-cfda05ad5451
   Frame=748   JointI=589   JointJ=647   IsCurved=No   GUID=150d3880-a15e-4fcf-98c2-476213385a43
   Frame=749   JointI=647   JointJ=648   IsCurved=No   GUID=c83df202-1011-45ff-9e4b-578006d82bfe
   Frame=750   JointI=590   JointJ=649   IsCurved=No   GUID=d4df5d66-bf08-4f7b-a3df-e201db373db0
   Frame=751   JointI=649   JointJ=650   IsCurved=No   GUID=1ea600d8-83cc-40ee-a90c-ca7bb27dd956
   Frame=752   JointI=591   JointJ=651   IsCurved=No   GUID=69f0a7d5-89e1-499e-bab1-bc3b60e5ab7d
   Frame=753   JointI=651   JointJ=652   IsCurved=No   GUID=c36cc2a5-4f7f-4ebc-b209-9fb4997b295d
   Frame=754   JointI=592   JointJ=653   IsCurved=No   GUID=e8f8d39f-0e41-4f9f-8cae-7d8b46289b10
   Frame=755   JointI=653   JointJ=654   IsCurved=No   GUID=0580c001-96d6-4d91-8ce8-643797d486a6
   Frame=756   JointI=593   JointJ=655   IsCurved=No   GUID=1f58f61e-16a4-4f12-869c-dbd880ce0320
   Frame=757   JointI=655   JointJ=656   IsCurved=No   GUID=26cabc08-ac88-41fa-bdd6-015654841ca8
   Frame=758   JointI=594   JointJ=657   IsCurved=No   GUID=91ab7945-1bd0-4be9-abac-af767923cfe2
   Frame=759   JointI=657   JointJ=658   IsCurved=No   GUID=0b47675a-17a3-41c1-9568-464791cd3193
   Frame=760   JointI=595   JointJ=659   IsCurved=No   GUID=33855655-0d97-4c69-9a63-6d851631cc33
   Frame=761   JointI=659   JointJ=660   IsCurved=No   GUID=20a20031-9653-4e08-9bbd-af96af340066
   Frame=762   JointI=596   JointJ=661   IsCurved=No   GUID=275c8fb3-ae4e-457d-98c1-ed9d13322ebd
   Frame=763   JointI=661   JointJ=662   IsCurved=No   GUID=7b371601-a056-409c-b467-19c310d4d83c
   Frame=764   JointI=597   JointJ=663   IsCurved=No   GUID=2c74c273-fb73-4247-93d4-617c02ab107b
   Frame=765   JointI=663   JointJ=664   IsCurved=No   GUID=53bc7ed8-5a9f-46a3-8e03-c10724d28f93
   Frame=766   JointI=598   JointJ=665   IsCurved=No   GUID=396fad60-b42f-4dff-b836-ae8487af86fd
   Frame=767   JointI=665   JointJ=666   IsCurved=No   GUID=93d0a44a-9d6a-4055-b1b1-e26da99f2acf
   Frame=768   JointI=599   JointJ=667   IsCurved=No   GUID=537450fb-3fc8-46bd-af8b-9df1de4f2390
   Frame=769   JointI=667   JointJ=668   IsCurved=No   GUID=1d2016bf-a66a-4ae6-b0a6-0711ec4cef0d
   Frame=770   JointI=600   JointJ=669   IsCurved=No   GUID=7ec5418f-3ae6-4d42-bffa-ad60476846cd
   Frame=771   JointI=669   JointJ=670   IsCurved=No   GUID=cefee45e-b77e-4393-a288-d8663ab9fb1b
   Frame=772   JointI=601   JointJ=671   IsCurved=No   GUID=bc59b814-5785-4d65-92c0-31448323e1da
   Frame=773   JointI=671   JointJ=672   IsCurved=No   GUID=4a8bd458-7121-4fa8-a7e1-e1a27123d1cc
   Frame=774   JointI=602   JointJ=673   IsCurved=No   GUID=9f053075-7c9e-4b79-82da-8e901b3f1e7c
   Frame=775   JointI=673   JointJ=674   IsCurved=No   GUID=091469db-ca84-4c7b-95e0-ce6b2cd0e513
   Frame=776   JointI=603   JointJ=675   IsCurved=No   GUID=742b342c-2bcd-42b4-a7bc-7aa5b02eb15f
   Frame=777   JointI=675   JointJ=676   IsCurved=No   GUID=403fc684-f951-4381-8e14-1cae7478b7fd
   Frame=778   JointI=604   JointJ=677   IsCurved=No   GUID=58e5690c-4950-4711-8bd7-a8adbed1c287
   Frame=779   JointI=677   JointJ=678   IsCurved=No   GUID=dcfc12dd-862f-45cf-b27d-6790d3d72718
   Frame=780   JointI=605   JointJ=679   IsCurved=No   GUID=1dc68bce-8bf4-439f-a818-b55c860ee1f7
   Frame=781   JointI=679   JointJ=680   IsCurved=No   GUID=5a990ddf-ba4c-4cac-969f-bdb5c37369e5
   Frame=782   JointI=606   JointJ=681   IsCurved=No   GUID=8aea8444-4f96-4cd5-9d1c-e9214fb3d6d2
   Frame=783   JointI=681   JointJ=682   IsCurved=No   GUID=7f060aae-1619-469d-aee0-48a154aa34ea
   Frame=784   JointI=607   JointJ=683   IsCurved=No   GUID=74e222fe-5446-4b44-965a-5dc6d9cf170c
   Frame=785   JointI=683   JointJ=684   IsCurved=No   GUID=eb3e638b-8b3e-45af-8a7c-0e2a5429d072
   Frame=786   JointI=608   JointJ=685   IsCurved=No   GUID=4060ceaa-69b6-43d7-ab2c-2d36d39d6d9d
   Frame=787   JointI=685   JointJ=686   IsCurved=No   GUID=4b184dd9-f969-4092-83f8-a76c3a234d7b
   Frame=788   JointI=624   JointJ=627   IsCurved=No   GUID=9382db5c-fd04-40c2-b871-ae3d535b46a4
   Frame=789   JointI=627   JointJ=630   IsCurved=No   GUID=611ef6ed-97b1-468b-afaf-6a7ba60ad71a
   Frame=790   JointI=630   JointJ=633   IsCurved=No   GUID=ce942e49-f16c-45b6-85de-c42de60b624c
   Frame=791   JointI=633   JointJ=636   IsCurved=No   GUID=631e7a7d-2584-4ca2-8ba5-bf548f3c4351
   Frame=792   JointI=636   JointJ=639   IsCurved=No   GUID=08e06235-a155-40b4-84d2-1c2540e2b5d0
   Frame=793   JointI=639   JointJ=642   IsCurved=No   GUID=fd3b3c91-3f70-43f4-90a4-7081443856d1
 
TABLE:  "COORDINATE SYSTEMS"
   Name=GLOBAL   Type=Cartesian   X=0   Y=0   Z=0   AboutZ=0   AboutY=0   AboutX=0
 
TABLE:  "DATABASE DOCUMENTATION"
 
TABLE:  "DATABASE FORMAT TYPES"
   UnitsCurr=Yes   OverrideE=No
 
TABLE:  "FRAME AUTO MESH ASSIGNMENTS"
   Frame=658   AutoMesh=Yes   AtJoints=Yes   AtFrames=No   NumSegments=0   MaxLength=0   MaxDegrees=0
   Frame=659   AutoMesh=Yes   AtJoints=Yes   AtFrames=No   NumSegments=0   MaxLength=0   MaxDegrees=0
   Frame=660   AutoMesh=Yes   AtJoints=Yes   AtFrames=No   NumSegments=0   MaxLength=0   MaxDegrees=0
   Frame=661   AutoMesh=Yes   AtJoints=Yes   AtFrames=No   NumSegments=0   MaxLength=0   MaxDegrees=0
   Frame=662   AutoMesh=Yes   AtJoints=Yes   AtFrames=No   NumSegments=0   MaxLength=0   MaxDegrees=0
   Frame=663   AutoMesh=Yes   AtJoints=Yes   AtFrames=No   NumSegments=0   MaxLength=0   MaxDegrees=0
   Frame=664   AutoMesh=Yes   AtJoints=Yes   AtFrames=No   NumSegments=0   MaxLength=0   MaxDegrees=0
   Frame=665   AutoMesh=Yes   AtJoints=Yes   AtFrames=No   NumSegments=0   MaxLength=0   MaxDegrees=0
   Frame=666   AutoMesh=Yes   AtJoints=Yes   AtFrames=No   NumSegments=0   MaxLength=0   MaxDegrees=0
   Frame=667   AutoMesh=Yes   AtJoints=Yes   AtFrames=No   NumSegments=0   MaxLength=0   MaxDegrees=0
   Frame=668   AutoMesh=Yes   AtJoints=Yes   AtFrames=No   NumSegments=0   MaxLength=0   MaxDegrees=0
   Frame=669   AutoMesh=Yes   AtJoints=Yes   AtFrames=No   NumSegments=0   MaxLength=0   MaxDegrees=0
   Frame=670   AutoMesh=Yes   AtJoints=Yes   AtFrames=No   NumSegments=0   MaxLength=0   MaxDegrees=0
   Frame=671   AutoMesh=Yes   AtJoints=Yes   AtFrames=No   NumSegments=0   MaxLength=0   MaxDegrees=0
   Frame=672   AutoMesh=Yes   AtJoints=Yes   AtFrames=No   NumSegments=0   MaxLength=0   MaxDegrees=0
   Frame=673   AutoMesh=Yes   AtJoints=Yes   AtFrames=No   NumSegments=0   MaxLength=0   MaxDegrees=0
   Frame=674   AutoMesh=Yes   AtJoints=Yes   AtFrames=No   NumSegments=0   MaxLength=0   MaxDegrees=0
   Frame=675   AutoMesh=Yes   AtJoints=Yes   AtFrames=No   NumSegments=0   MaxLength=0   MaxDegrees=0
   Frame=676   AutoMesh=Yes   AtJoints=Yes   AtFrames=No   NumSegments=0   MaxLength=0   MaxDegrees=0
   Frame=677   AutoMesh=Yes   AtJoints=Yes   AtFrames=No   NumSegments=0   MaxLength=0   MaxDegrees=0
# ... 116 like lines cut
 
TABLE:  "FRAME DESIGN PROCEDURES"
   Frame=658   DesignProc="From Material"
   Frame=659   DesignProc="From Material"
   Frame=660   DesignProc="From Material"
   Frame=661   DesignProc="From Material"
   Frame=662   DesignProc="From Material"
   Frame=663   DesignProc="From Material"
   Frame=664   DesignProc="From Material"
   Frame=665   DesignProc="From Material"
   Frame=666   DesignProc="From Material"
   Frame=667   DesignProc="From Material"
   Frame=668   DesignProc="From Material"
   Frame=669   DesignProc="From Material"
   Frame=670   DesignProc="From Material"
   Frame=671   DesignProc="From Material"
   Frame=672   DesignProc="From Material"
   Frame=673   DesignProc="From Material"
   Frame=674   DesignProc="From Material"
   Frame=675   DesignProc="From Material"
   Frame=676   DesignProc="From Material"
   Frame=677   DesignProc="From Material"
# ... 48 like lines cut
   Frame=726   DesignProc="No Design"
   Frame=727   DesignProc="No Design"
   Frame=728   DesignProc="From Material"
   Frame=729   DesignProc="No Design"
   Frame=730   DesignProc="No Design"
   Frame=731   DesignProc="From Material"
   Frame=732   DesignProc="No Design"
   Frame=733   DesignProc="No Design"
   Frame=734   DesignProc="From Material"
   Frame=735   DesignProc="No Design"
   Frame=736   DesignProc="No Design"
   Frame=737   DesignProc="From Material"
   Frame=738   DesignProc="No Design"
   Frame=739   DesignProc="No Design"
   Frame=740   DesignProc="From Material"
   Frame=741   DesignProc="No Design"
   Frame=742   DesignProc="No Design"
   Frame=743   DesignProc="From Material"
   Frame=744   DesignProc="No Design"
   Frame=745   DesignProc="No Design"
   Frame=746   DesignProc="No Design"
   Frame=747   DesignProc="No Design"
   Frame=748   DesignProc="No Design"
   Frame=749   DesignProc="No Design"
   Frame=750   DesignProc="No Design"
   Frame=751   DesignProc="No Design"
   Frame=752   DesignProc="No Design"
   Frame=753   DesignProc="No Design"
   Frame=754   DesignProc="No Design"
   Frame=755   DesignProc="No Design"
   Frame=756   DesignProc="No Design"
   Frame=757   DesignProc="No Design"
   Frame=758   DesignProc="No Design"
   Frame=759   DesignProc="No Design"
   Frame=760   DesignProc="No Design"
   Frame=761   DesignProc="No Design"
   Frame=762   DesignProc="No Design"
   Frame=763   DesignProc="No Design"
# ... 24 like lines cut
   Frame=788   DesignProc="From Material"
   Frame=789   DesignProc="From Material"
   Frame=790   DesignProc="From Material"
   Frame=791   DesignProc="From Material"
   Frame=792   DesignProc="From Material"
   Frame=793   DesignProc="From Material"
 
TABLE:  "FRAME LOAD TRANSFER OPTIONS"
   Frame=658   Transfer=Yes
   Frame=659   Transfer=Yes
   Frame=660   Transfer=Yes
   Frame=661   Transfer=Yes
   Frame=662   Transfer=Yes
   Frame=663   Transfer=Yes
   Frame=664   Transfer=Yes
   Frame=665   Transfer=Yes
   Frame=666   Transfer=Yes
   Frame=667   Transfer=Yes
   Frame=668   Transfer=Yes
   Frame=669   Transfer=Yes
   Frame=670   Transfer=Yes
   Frame=671   Transfer=Yes
   Frame=672   Transfer=Yes
   Frame=673   Transfer=Yes
   Frame=674   Transfer=Yes
   Frame=675   Transfer=Yes
   Frame=676   Transfer=Yes
   Frame=677   Transfer=Yes
# ... 116 like lines cut
 
TABLE:  "FRAME LOCAL AXES ASSIGNMENTS 1 - TYPICAL"
   Frame=725   Angle=90
   Frame=728   Angle=90
   Frame=731   Angle=90
   Frame=734   Angle=90
   Frame=737   Angle=90
   Frame=740   Angle=90
   Frame=743   Angle=90
 
TABLE:  "FRAME OUTPUT STATION ASSIGNMENTS"
   Frame=658   StationType=MaxStaSpcg   MaxStaSpcg=0.5   AddAtElmInt=Yes   AddAtPtLoad=Yes
   Frame=659   StationType=MaxStaSpcg   MaxStaSpcg=0.5   AddAtElmInt=Yes   AddAtPtLoad=Yes
   Frame=660   StationType=MaxStaSpcg   MaxStaSpcg=0.5   AddAtElmInt=Yes   AddAtPtLoad=Yes
   Frame=661   StationType=MaxStaSpcg   MaxStaSpcg=0.5   AddAtElmInt=Yes   AddAtPtLoad=Yes
   Frame=662   StationType=MaxStaSpcg   MaxStaSpcg=0.5   AddAtElmInt=Yes   AddAtPtLoad=Yes
   Frame=663   StationType=MaxStaSpcg   MaxStaSpcg=0.5   AddAtElmInt=Yes   AddAtPtLoad=Yes
   Frame=664   StationType=MaxStaSpcg   MaxStaSpcg=0.5   AddAtElmInt=Yes   AddAtPtLoad=Yes
   Frame=665   StationType=MaxStaSpcg   MaxStaSpcg=0.5   AddAtElmInt=Yes   AddAtPtLoad=Yes
   Frame=666   StationType=MaxStaSpcg   MaxStaSpcg=0.5   AddAtElmInt=Yes   AddAtPtLoad=Yes
   Frame=667   StationType=MaxStaSpcg   MaxStaSpcg=0.5   AddAtElmInt=Yes   AddAtPtLoad=Yes
   Frame=668   StationType=MaxStaSpcg   MaxStaSpcg=0.5   AddAtElmInt=Yes   AddAtPtLoad=Yes
   Frame=669   StationType=MaxStaSpcg   MaxStaSpcg=0.5   AddAtElmInt=Yes   AddAtPtLoad=Yes
   Frame=670   StationType=MaxStaSpcg   MaxStaSpcg=0.5   AddAtElmInt=Yes   AddAtPtLoad=Yes
   Frame=671   StationType=MaxStaSpcg   MaxStaSpcg=0.5   AddAtElmInt=Yes   AddAtPtLoad=Yes
   Frame=672   StationType=MaxStaSpcg   MaxStaSpcg=0.5   AddAtElmInt=Yes   AddAtPtLoad=Yes
   Frame=673   StationType=MaxStaSpcg   MaxStaSpcg=0.5   AddAtElmInt=Yes   AddAtPtLoad=Yes
   Frame=674   StationType=MaxStaSpcg   MaxStaSpcg=0.5   AddAtElmInt=Yes   AddAtPtLoad=Yes
   Frame=675   StationType=MaxStaSpcg   MaxStaSpcg=0.5   AddAtElmInt=Yes   AddAtPtLoad=Yes
   Frame=676   StationType=MaxStaSpcg   MaxStaSpcg=0.5   AddAtElmInt=Yes   AddAtPtLoad=Yes
   Frame=677   StationType=MaxStaSpcg   MaxStaSpcg=0.5   AddAtElmInt=Yes   AddAtPtLoad=Yes
# ... 47 like lines cut
   Frame=725   StationType=MinNumSta   MinNumSta=3   AddAtElmInt=Yes   AddAtPtLoad=Yes
   Frame=726   StationType=MinNumSta   MinNumSta=3   AddAtElmInt=Yes   AddAtPtLoad=Yes
   Frame=727   StationType=MinNumSta   MinNumSta=3   AddAtElmInt=Yes   AddAtPtLoad=Yes
   Frame=728   StationType=MinNumSta   MinNumSta=3   AddAtElmInt=Yes   AddAtPtLoad=Yes
   Frame=729   StationType=MinNumSta   MinNumSta=3   AddAtElmInt=Yes   AddAtPtLoad=Yes
   Frame=730   StationType=MinNumSta   MinNumSta=3   AddAtElmInt=Yes   AddAtPtLoad=Yes
   Frame=731   StationType=MinNumSta   MinNumSta=3   AddAtElmInt=Yes   AddAtPtLoad=Yes
   Frame=732   StationType=MinNumSta   MinNumSta=3   AddAtElmInt=Yes   AddAtPtLoad=Yes
   Frame=733   StationType=MinNumSta   MinNumSta=3   AddAtElmInt=Yes   AddAtPtLoad=Yes
   Frame=734   StationType=MinNumSta   MinNumSta=3   AddAtElmInt=Yes   AddAtPtLoad=Yes
   Frame=735   StationType=MinNumSta   MinNumSta=3   AddAtElmInt=Yes   AddAtPtLoad=Yes
   Frame=736   StationType=MinNumSta   MinNumSta=3   AddAtElmInt=Yes   AddAtPtLoad=Yes
   Frame=737   StationType=MinNumSta   MinNumSta=3   AddAtElmInt=Yes   AddAtPtLoad=Yes
   Frame=738   StationType=MinNumSta   MinNumSta=3   AddAtElmInt=Yes   AddAtPtLoad=Yes
   Frame=739   StationType=MinNumSta   MinNumSta=3   AddAtElmInt=Yes   AddAtPtLoad=Yes
   Frame=740   StationType=MinNumSta   MinNumSta=3   AddAtElmInt=Yes   AddAtPtLoad=Yes
   Frame=741   StationType=MinNumSta   MinNumSta=3   AddAtElmInt=Yes   AddAtPtLoad=Yes
   Frame=742   StationType=MinNumSta   MinNumSta=3   AddAtElmInt=Yes   AddAtPtLoad=Yes
   Frame=743   StationType=MinNumSta   MinNumSta=3   AddAtElmInt=Yes   AddAtPtLoad=Yes
   Frame=744   StationType=MinNumSta   MinNumSta=3   AddAtElmInt=Yes   AddAtPtLoad=Yes
# ... 43 like lines cut
   Frame=788   StationType=MaxStaSpcg   MaxStaSpcg=0.5   AddAtElmInt=Yes   AddAtPtLoad=Yes
   Frame=789   StationType=MaxStaSpcg   MaxStaSpcg=0.5   AddAtElmInt=Yes   AddAtPtLoad=Yes
   Frame=790   StationType=MaxStaSpcg   MaxStaSpcg=0.5   AddAtElmInt=Yes   AddAtPtLoad=Yes
   Frame=791   StationType=MaxStaSpcg   MaxStaSpcg=0.5   AddAtElmInt=Yes   AddAtPtLoad=Yes
   Frame=792   StationType=MaxStaSpcg   MaxStaSpcg=0.5   AddAtElmInt=Yes   AddAtPtLoad=Yes
   Frame=793   StationType=MaxStaSpcg   MaxStaSpcg=0.5   AddAtElmInt=Yes   AddAtPtLoad=Yes
 
TABLE:  "FRAME SECTION ASSIGNMENTS"
   Frame=658   AutoSelect=N.A.   AnalSect=TB   MatProp=Default
   Frame=659   AutoSelect=N.A.   AnalSect=TB   MatProp=Default
   Frame=660   AutoSelect=N.A.   AnalSect=TB   MatProp=Default
   Frame=661   AutoSelect=N.A.   AnalSect=TB   MatProp=Default
   Frame=662   AutoSelect=N.A.   AnalSect=TB   MatProp=Default
   Frame=663   AutoSelect=N.A.   AnalSect=TB   MatProp=Default
   Frame=664   AutoSelect=N.A.   AnalSect=TB   MatProp=Default
   Frame=665   AutoSelect=N.A.   AnalSect=TB   MatProp=Default
   Frame=666   AutoSelect=N.A.   AnalSect=TB   MatProp=Default
   Frame=667   AutoSelect=N.A.   AnalSect=TB   MatProp=Default
   Frame=668   AutoSelect=N.A.   AnalSect=TB   MatProp=Default
   Frame=669   AutoSelect=N.A.   AnalSect=TB   MatProp=Default
   Frame=670   AutoSelect=N.A.   AnalSect=TB   MatProp=Default
   Frame=671   AutoSelect=N.A.   AnalSect=TB   MatProp=Default
   Frame=672   AutoSelect=N.A.   AnalSect=TB   MatProp=Default
   Frame=673   AutoSelect=N.A.   AnalSect=TB   MatProp=Default
   Frame=674   AutoSelect=N.A.   AnalSect=TB   MatProp=Default
   Frame=675   AutoSelect=N.A.   AnalSect=TB   MatProp=Default
   Frame=676   AutoSelect=N.A.   AnalSect=TB   MatProp=Default
   Frame=677   AutoSelect=N.A.   AnalSect=TB   MatProp=Default
# ... 15 like lines cut
   Frame=693   AutoSelect=N.A.   AnalSect=LB   MatProp=Default
   Frame=694   AutoSelect=N.A.   AnalSect=LB   MatProp=Default
   Frame=695   AutoSelect=N.A.   AnalSect=LB   MatProp=Default
   Frame=696   AutoSelect=N.A.   AnalSect=LB   MatProp=Default
   Frame=697   AutoSelect=N.A.   AnalSect=LB   MatProp=Default
   Frame=698   AutoSelect=N.A.   AnalSect=LB   MatProp=Default
   Frame=699   AutoSelect=N.A.   AnalSect=LB   MatProp=Default
   Frame=700   AutoSelect=N.A.   AnalSect=LB   MatProp=Default
   Frame=701   AutoSelect=N.A.   AnalSect=LB   MatProp=Default
   Frame=702   AutoSelect=N.A.   AnalSect=LB   MatProp=Default
   Frame=703   AutoSelect=N.A.   AnalSect=LB   MatProp=Default
   Frame=704   AutoSelect=N.A.   AnalSect=LB   MatProp=Default
   Frame=705   AutoSelect=N.A.   AnalSect=LB   MatProp=Default
   Frame=706   AutoSelect=N.A.   AnalSect=LB   MatProp=Default
   Frame=707   AutoSelect=N.A.   AnalSect=LB   MatProp=Default
   Frame=708   AutoSelect=N.A.   AnalSect=LB   MatProp=Default
   Frame=709   AutoSelect=N.A.   AnalSect=LB   MatProp=Default
   Frame=710   AutoSelect=N.A.   AnalSect=LB   MatProp=Default
   Frame=711   AutoSelect=N.A.   AnalSect=LB   MatProp=Default
   Frame=712   AutoSelect=N.A.   AnalSect=LB   MatProp=Default
# ... 12 like lines cut
   Frame=725   AutoSelect=N.A.   AnalSect=EB   MatProp=Default
   Frame=726   AutoSelect=N.A.   AnalSect=Piles   MatProp=Default
   Frame=727   AutoSelect=N.A.   AnalSect=Piles   MatProp=Default
   Frame=728   AutoSelect=N.A.   AnalSect=EB   MatProp=Default
   Frame=729   AutoSelect=N.A.   AnalSect=Piles   MatProp=Default
   Frame=730   AutoSelect=N.A.   AnalSect=Piles   MatProp=Default
   Frame=731   AutoSelect=N.A.   AnalSect=EB   MatProp=Default
   Frame=732   AutoSelect=N.A.   AnalSect=Piles   MatProp=Default
   Frame=733   AutoSelect=N.A.   AnalSect=Piles   MatProp=Default
   Frame=734   AutoSelect=N.A.   AnalSect=EB   MatProp=Default
   Frame=735   AutoSelect=N.A.   AnalSect=Piles   MatProp=Default
   Frame=736   AutoSelect=N.A.   AnalSect=Piles   MatProp=Default
   Frame=737   AutoSelect=N.A.   AnalSect=EB   MatProp=Default
   Frame=738   AutoSelect=N.A.   AnalSect=Piles   MatProp=Default
   Frame=739   AutoSelect=N.A.   AnalSect=Piles   MatProp=Default
   Frame=740   AutoSelect=N.A.   AnalSect=EB   MatProp=Default
   Frame=741   AutoSelect=N.A.   AnalSect=Piles   MatProp=Default
   Frame=742   AutoSelect=N.A.   AnalSect=Piles   MatProp=Default
   Frame=743   AutoSelect=N.A.   AnalSect=EB   MatProp=Default
   Frame=744   AutoSelect=N.A.   AnalSect=Piles   MatProp=Default
   Frame=745   AutoSelect=N.A.   AnalSect=Piles   MatProp=Default
   Frame=746   AutoSelect=N.A.   AnalSect=Piles   MatProp=Default
   Frame=747   AutoSelect=N.A.   AnalSect=Piles   MatProp=Default
   Frame=748   AutoSelect=N.A.   AnalSect=Piles   MatProp=Default
   Frame=749   AutoSelect=N.A.   AnalSect=Piles   MatProp=Default
   Frame=750   AutoSelect=N.A.   AnalSect=Piles   MatProp=Default
   Frame=751   AutoSelect=N.A.   AnalSect=Piles   MatProp=Default
   Frame=752   AutoSelect=N.A.   AnalSect=Piles   MatProp=Default
   Frame=753   AutoSelect=N.A.   AnalSect=Piles   MatProp=Default
   Frame=754   AutoSelect=N.A.   AnalSect=Piles   MatProp=Default
   Frame=755   AutoSelect=N.A.   AnalSect=Piles   MatProp=Default
   Frame=756   AutoSelect=N.A.   AnalSect=Piles   MatProp=Default
   Frame=757   AutoSelect=N.A.   AnalSect=Piles   MatProp=Default
   Frame=758   AutoSelect=N.A.   AnalSect=Piles   MatProp=Default
   Frame=759   AutoSelect=N.A.   AnalSect=Piles   MatProp=Default
   Frame=760   AutoSelect=N.A.   AnalSect=Piles   MatProp=Default
   Frame=761   AutoSelect=N.A.   AnalSect=Piles   MatProp=Default
   Frame=762   AutoSelect=N.A.   AnalSect=Piles   MatProp=Default
   Frame=763   AutoSelect=N.A.   AnalSect=Piles   MatProp=Default
# ... 24 like lines cut
   Frame=788   AutoSelect=N.A.   AnalSect=EB-1   MatProp=Default
   Frame=789   AutoSelect=N.A.   AnalSect=EB-1   MatProp=Default
   Frame=790   AutoSelect=N.A.   AnalSect=EB-1   MatProp=Default
   Frame=791   AutoSelect=N.A.   AnalSect=EB-1   MatProp=Default
   Frame=792   AutoSelect=N.A.   AnalSect=EB-1   MatProp=Default
   Frame=793   AutoSelect=N.A.   AnalSect=EB-1   MatProp=Default
 
TABLE:  "FRAME SECTION PROPERTIES 01 - GENERAL"
   SectionName=EB   Material=BTCT   Shape=Rectangular   t3=1.2   t2=2   Area=2.4   TorsConst=0.7212469248   I33=0.288   I22=0.8   I23=0   AS2=2   AS3=2   S33Top=0.48   S33Bot=0.48   S22Left=0.8   S22Right=0.8   Z33=0.72   Z22=1.2 _
        R33=0.346410161513775   R22=0.577350269189626   CGOffset3=0   CGOffset2=0   EccV2=0   EccV3=0   Cw=0   Color=Yellow   FromFile=No   AMod=1   A2Mod=1   A3Mod=1   JMod=1   I2Mod=1   I3Mod=1   MMod=1   WMod=1
   SectionName=EB-1   Material=BTCT   Shape=Rectangular   t3=2   t2=2   Area=4   TorsConst=2.25333333333333   I33=1.33333333333333   I22=1.33333333333333   I23=0   AS2=3.33333333333333   AS3=3.33333333333333   S33Top=1.33333333333333 _
        S33Bot=1.33333333333333   S22Left=1.33333333333333   S22Right=1.33333333333333   Z33=2   Z22=2   R33=0.577350269189626   R22=0.577350269189626   CGOffset3=0   CGOffset2=0   EccV2=0   EccV3=0   Cw=0   Color=Gray8Dark   FromFile=No _
        AMod=1   A2Mod=1   A3Mod=1   JMod=1   I2Mod=1   I3Mod=1   MMod=1   WMod=1
   SectionName=LB   Material=BTCT   Shape=Rectangular   t3=1.2   t2=2   Area=2.4   TorsConst=0.7212469248   I33=0.288   I22=0.8   I23=0   AS2=2   AS3=2   S33Top=0.48   S33Bot=0.48   S22Left=0.8   S22Right=0.8   Z33=0.72   Z22=1.2 _
        R33=0.346410161513776   R22=0.577350269189626   CGOffset3=0   CGOffset2=0   EccV2=0   EccV3=0   Cw=0   Color=Magenta   FromFile=No   AMod=1   A2Mod=1   A3Mod=1   JMod=1   I2Mod=1   I3Mod=1   MMod=1   WMod=1
   SectionName=Piles   Material=BTCTCOC   Shape=Pipe   t3=0.7   tw=0.1   Area=0.188495559215388   TorsConst=0.0174358392274233   I33=0.00871791961371167   I22=0.00871791961371167   I23=0   AS2=0.0959770966647157   AS3=0.0959770966647157 _
        S33Top=0.0249083417534619   S33Bot=0.0249083417534619   S22Left=0.0249083417534619   S22Right=0.0249083417534619   Z33=0.0363333333333333   Z22=0.0363333333333333   R33=0.215058131676066   R22=0.215058131676066   CGOffset3=0 _
        CGOffset2=0   EccV2=0   EccV3=0   Cw=0   Color=Blue   FromFile=No   AMod=1   A2Mod=1   A3Mod=1   JMod=1   I2Mod=1   I3Mod=1   MMod=1   WMod=1
   SectionName=TB   Material=BTCT   Shape=Rectangular   t3=1.2   t2=2   Area=2.4   TorsConst=0.7212469248   I33=0.288   I22=0.8   I23=0   AS2=2   AS3=2   S33Top=0.48   S33Bot=0.48   S22Left=0.8   S22Right=0.8   Z33=0.72   Z22=1.2 _
        R33=0.346410161513776   R22=0.577350269189626   CGOffset3=0   CGOffset2=0   EccV2=0   EccV3=0   Cw=0   Color=Red   FromFile=No   AMod=1   A2Mod=1   A3Mod=1   JMod=1   I2Mod=1   I3Mod=1   MMod=1   WMod=1
 
TABLE:  "FRAME SECTION PROPERTIES 02 - CONCRETE COLUMN"
   SectionName=EB   RebarMatL=A706   RebarMatC=A706   ReinfConfig=Rectangular   LatReinf=Ties   Cover=0.05   NumBars3Dir=2   NumBars2Dir=2   BarSizeL=12d   BarSizeC=10d   SpacingC=0.1   NumCBars2=2   NumCBars3=2   ReinfType=Design
   SectionName=EB-1   RebarMatL=A706   RebarMatC=A706   ReinfConfig=Rectangular   LatReinf=Ties   Cover=0.05   NumBars3Dir=2   NumBars2Dir=2   BarSizeL=12d   BarSizeC=10d   SpacingC=0.1   NumCBars2=2   NumCBars3=2   ReinfType=Design
   SectionName=LB   RebarMatL=A706   RebarMatC=A706   ReinfConfig=Rectangular   LatReinf=Ties   Cover=0.05   NumBars3Dir=2   NumBars2Dir=2   BarSizeL=12d   BarSizeC=10d   SpacingC=0.1   NumCBars2=2   NumCBars3=2   ReinfType=Design
   SectionName=TB   RebarMatL=A706   RebarMatC=A706   ReinfConfig=Rectangular   LatReinf=Ties   Cover=0.05   NumBars3Dir=2   NumBars2Dir=2   BarSizeL=12d   BarSizeC=10d   SpacingC=0.1   NumCBars2=2   NumCBars3=2   ReinfType=Design
 
TABLE:  "FRAME SECTION PROPERTIES 13 - TIME DEPENDENT"
   SectionName=EB   TypeSize=Auto   AutoSFSize=1
   SectionName=EB-1   TypeSize=Auto   AutoSFSize=1
   SectionName=LB   TypeSize=Auto   AutoSFSize=1
   SectionName=Piles   TypeSize=Auto   AutoSFSize=1
   SectionName=TB   TypeSize=Auto   AutoSFSize=1
 
TABLE:  "FUNCTION - PLOT FUNCTIONS"
   PlotFunc="Input Energy"   Type=Energy   Component=Input   Mode=All
 
TABLE:  "FUNCTION - POWER SPECTRAL DENSITY - USER"
   Name=UNIFPSD   Frequency=0   Value=1
   Name=UNIFPSD   Frequency=1   Value=1
 
TABLE:  "FUNCTION - RESPONSE SPECTRUM - USER"
   Name=UNIFRS   Period=0   Accel=1   FuncDamp=0.05
   Name=UNIFRS   Period=1   Accel=1
 
TABLE:  "FUNCTION - STEADY STATE - USER"
   Name=UNIFSS   Frequency=0   Value=1
   Name=UNIFSS   Frequency=1   Value=1
 
TABLE:  "FUNCTION - TIME HISTORY - USER"
   Name=RAMPTH   Time=0   Value=0
   Name=RAMPTH   Time=1   Value=1
   Name=RAMPTH   Time=4   Value=1
   Name=UNIFTH   Time=0   Value=1
   Name=UNIFTH   Time=1   Value=1
 
TABLE:  "GRID LINES"
   CoordSys=GLOBAL   AxisDir=X   GridID=A   XRYZCoord=-10   LineType=Primary   LineColor=Gray8Dark   Visible=Yes   BubbleLoc=End   AllVisible=Yes   BubbleSize=0.9375
   CoordSys=GLOBAL   AxisDir=X   GridID=B   XRYZCoord=-9   LineType=Primary   LineColor=Gray8Dark   Visible=Yes   BubbleLoc=End
   CoordSys=GLOBAL   AxisDir=X   GridID=C   XRYZCoord=-4.5   LineType=Primary   LineColor=Gray8Dark   Visible=Yes   BubbleLoc=End
   CoordSys=GLOBAL   AxisDir=X   GridID=D   XRYZCoord=0   LineType=Primary   LineColor=Gray8Dark   Visible=Yes   BubbleLoc=End
   CoordSys=GLOBAL   AxisDir=X   GridID=E   XRYZCoord=4.5   LineType=Primary   LineColor=Gray8Dark   Visible=Yes   BubbleLoc=End
   CoordSys=GLOBAL   AxisDir=X   GridID=F   XRYZCoord=9   LineType=Primary   LineColor=Gray8Dark   Visible=Yes   BubbleLoc=End
   CoordSys=GLOBAL   AxisDir=X   GridID=G   XRYZCoord=10   LineType=Primary   LineColor=Gray8Dark   Visible=Yes   BubbleLoc=End
   CoordSys=GLOBAL   AxisDir=Y   GridID=1   XRYZCoord=-5.2   LineType=Primary   LineColor=Gray8Dark   Visible=Yes   BubbleLoc=Start
   CoordSys=GLOBAL   AxisDir=Y   GridID=2   XRYZCoord=-4.2   LineType=Primary   LineColor=Gray8Dark   Visible=Yes   BubbleLoc=Start
   CoordSys=GLOBAL   AxisDir=Y   GridID=3   XRYZCoord=0   LineType=Primary   LineColor=Gray8Dark   Visible=Yes   BubbleLoc=Start
   CoordSys=GLOBAL   AxisDir=Y   GridID=4   XRYZCoord=4.2   LineType=Primary   LineColor=Gray8Dark   Visible=Yes   BubbleLoc=Start
   CoordSys=GLOBAL   AxisDir=Y   GridID=5   XRYZCoord=4.8   LineType=Primary   LineColor=Gray8Dark   Visible=Yes   BubbleLoc=Start
   CoordSys=GLOBAL   AxisDir=Z   GridID=Z1   XRYZCoord=0   LineType=Primary   LineColor=Gray8Dark   Visible=Yes   BubbleLoc=End
   CoordSys=GLOBAL   AxisDir=Z   GridID=Z2   XRYZCoord=13   LineType=Primary   LineColor=Gray8Dark   Visible=Yes   BubbleLoc=End
 
TABLE:  "GROUPS 1 - DEFINITIONS"
   GroupName=ALL   Selection=Yes   SectionCut=Yes   Steel=Yes   Concrete=Yes   Aluminum=Yes   ColdFormed=Yes   Stage=Yes   Bridge=Yes   AutoSeismic=No   AutoWind=No   SelDesSteel=No   SelDesAlum=No   SelDesCold=No   MassWeight=Yes   Color=Red
   GroupName=Pile   Selection=Yes   SectionCut=Yes   Steel=Yes   Concrete=Yes   Aluminum=Yes   ColdFormed=Yes   Stage=Yes   Bridge=Yes   AutoSeismic=No   AutoWind=No   SelDesSteel=No   SelDesAlum=No   SelDesCold=No   MassWeight=Yes   Color=Gray8Dark
   GroupName=DN   Selection=Yes   SectionCut=Yes   Steel=Yes   Concrete=Yes   Aluminum=Yes   ColdFormed=Yes   Stage=Yes   Bridge=Yes   AutoSeismic=No   AutoWind=No   SelDesSteel=No   SelDesAlum=No   SelDesCold=No   MassWeight=Yes   Color=Yellow
   GroupName=Pile_Toe   Selection=Yes   SectionCut=Yes   Steel=Yes   Concrete=Yes   Aluminum=Yes   ColdFormed=Yes   Stage=Yes   Bridge=Yes   AutoSeismic=No   AutoWind=No   SelDesSteel=No   SelDesAlum=No   SelDesCold=No   MassWeight=Yes   Color=Green
   GroupName=Pile_Bend   Selection=Yes   SectionCut=Yes   Steel=Yes   Concrete=Yes   Aluminum=Yes   ColdFormed=Yes   Stage=Yes   Bridge=Yes   AutoSeismic=No   AutoWind=No   SelDesSteel=No   SelDesAlum=No   SelDesCold=No   MassWeight=Yes   Color=Cyan
   GroupName=Beam   Selection=Yes   SectionCut=Yes   Steel=Yes   Concrete=Yes   Aluminum=Yes   ColdFormed=Yes   Stage=Yes   Bridge=Yes   AutoSeismic=No   AutoWind=No   SelDesSteel=No   SelDesAlum=No   SelDesCold=No   MassWeight=Yes   Color=Blue
   GroupName=Piles   Selection=Yes   SectionCut=Yes   Steel=Yes   Concrete=Yes   Aluminum=Yes   ColdFormed=Yes   Stage=Yes   Bridge=Yes   AutoSeismic=No   AutoWind=No   SelDesSteel=No   SelDesAlum=No   SelDesCold=No   MassWeight=Yes   Color=Green
   GroupName=Beams   Selection=Yes   SectionCut=Yes   Steel=Yes   Concrete=Yes   Aluminum=Yes   ColdFormed=Yes   Stage=Yes   Bridge=Yes   AutoSeismic=No   AutoWind=No   SelDesSteel=No   SelDesAlum=No   SelDesCold=No   MassWeight=Yes   Color=Cyan
 
TABLE:  "GROUPS 2 - ASSIGNMENTS"
 
TABLE:  "JOINT COORDINATES"
   Joint=574   CoordSys=GLOBAL   CoordType=Cartesian   XorR=-9   Y=-5   Z=0   SpecialJt=No   GUID=34856572-36b3-47c5-8734-aa2e1abfed03
   Joint=575   CoordSys=GLOBAL   CoordType=Cartesian   XorR=-9   Y=-4.5   Z=0   SpecialJt=No   GUID=595a5dd5-4b91-4310-ab57-24894a1908ec
   Joint=576   CoordSys=GLOBAL   CoordType=Cartesian   XorR=-6   Y=-5   Z=0   SpecialJt=No   GUID=13862da2-ed02-4ea4-b9c4-85f313abf1fd
   Joint=577   CoordSys=GLOBAL   CoordType=Cartesian   XorR=-6   Y=-4.5   Z=0   SpecialJt=No   GUID=512a20de-5d83-4e9c-831b-c937e02ce2d7
   Joint=578   CoordSys=GLOBAL   CoordType=Cartesian   XorR=-3   Y=-5   Z=0   SpecialJt=No   GUID=43d78c30-d2c4-4091-bcff-d2b7c2ba50de
   Joint=579   CoordSys=GLOBAL   CoordType=Cartesian   XorR=-3   Y=-4.5   Z=0   SpecialJt=No   GUID=851fb797-b94f-459d-9cf2-df1a71dd1b8c
   Joint=580   CoordSys=GLOBAL   CoordType=Cartesian   XorR=0   Y=-5   Z=0   SpecialJt=No   GUID=6227870c-8370-41e0-9b45-3c6c017acd17
   Joint=581   CoordSys=GLOBAL   CoordType=Cartesian   XorR=0   Y=-4.5   Z=0   SpecialJt=No   GUID=b23cebfa-3377-4483-9e2b-346c99935fcd
   Joint=582   CoordSys=GLOBAL   CoordType=Cartesian   XorR=3   Y=-5   Z=0   SpecialJt=No   GUID=439de945-c14c-4688-b6e1-3c814e536ab3
   Joint=583   CoordSys=GLOBAL   CoordType=Cartesian   XorR=3   Y=-4.5   Z=0   SpecialJt=No   GUID=604d9295-825c-4420-a168-50732e455d27
   Joint=584   CoordSys=GLOBAL   CoordType=Cartesian   XorR=6   Y=-5   Z=0   SpecialJt=No   GUID=6c974054-d903-4bca-bba3-720102be607c
   Joint=585   CoordSys=GLOBAL   CoordType=Cartesian   XorR=6   Y=-4.5   Z=0   SpecialJt=No   GUID=e6ae8303-d4f5-44ff-a124-dce50fff5caf
   Joint=586   CoordSys=GLOBAL   CoordType=Cartesian   XorR=9   Y=-5   Z=0   SpecialJt=No   GUID=8e42b309-5cbb-4365-8864-beb78b82b840
   Joint=587   CoordSys=GLOBAL   CoordType=Cartesian   XorR=9   Y=-4.5   Z=0   SpecialJt=No   GUID=97a8edad-366d-48f0-b88d-78dcec7a62ff
   Joint=588   CoordSys=GLOBAL   CoordType=Cartesian   XorR=-9   Y=-1.5   Z=0   SpecialJt=No   GUID=c5a2398c-68a1-474e-8114-395e30f3c96b
   Joint=589   CoordSys=GLOBAL   CoordType=Cartesian   XorR=-6   Y=-1.5   Z=0   SpecialJt=No   GUID=7658f9da-7f82-4798-ab74-dbe3e62e8d71
   Joint=590   CoordSys=GLOBAL   CoordType=Cartesian   XorR=-3   Y=-1.5   Z=0   SpecialJt=No   GUID=30c21e7e-8795-4d80-b4fd-043d40d638b6
   Joint=591   CoordSys=GLOBAL   CoordType=Cartesian   XorR=0   Y=-1.5   Z=0   SpecialJt=No   GUID=57b37a62-c87b-4b2d-9cf8-4e1307fb46e4
   Joint=592   CoordSys=GLOBAL   CoordType=Cartesian   XorR=3   Y=-1.5   Z=0   SpecialJt=No   GUID=09f40b66-e74a-4efe-a2ab-f50c77c01a99
   Joint=593   CoordSys=GLOBAL   CoordType=Cartesian   XorR=6   Y=-1.5   Z=0   SpecialJt=No   GUID=18cb2eb3-faeb-4d56-85c3-cde049701a6d
   Joint=594   CoordSys=GLOBAL   CoordType=Cartesian   XorR=9   Y=-1.5   Z=0   SpecialJt=No   GUID=4cb0d0c7-37c2-4aa5-827a-b27985bcfbf7
   Joint=595   CoordSys=GLOBAL   CoordType=Cartesian   XorR=-9   Y=1.5   Z=0   SpecialJt=No   GUID=93421bf0-2171-4425-a739-20ecb2b9380c
   Joint=596   CoordSys=GLOBAL   CoordType=Cartesian   XorR=-6   Y=1.5   Z=0   SpecialJt=No   GUID=7c7fa21f-e717-4053-b042-bedfe2c55930
   Joint=597   CoordSys=GLOBAL   CoordType=Cartesian   XorR=-3   Y=1.5   Z=0   SpecialJt=No   GUID=c620ae62-858e-4ff8-ac0f-5d3d970f6fff
   Joint=598   CoordSys=GLOBAL   CoordType=Cartesian   XorR=0   Y=1.5   Z=0   SpecialJt=No   GUID=3addd764-851e-47bd-a808-e5644c1cc9c3
   Joint=599   CoordSys=GLOBAL   CoordType=Cartesian   XorR=3   Y=1.5   Z=0   SpecialJt=No   GUID=38dec313-50e2-4c8f-8eb0-ba95520cf66c
   Joint=600   CoordSys=GLOBAL   CoordType=Cartesian   XorR=6   Y=1.5   Z=0   SpecialJt=No   GUID=4eba8fd7-62ae-4369-a4be-fd9d82d447dd
   Joint=601   CoordSys=GLOBAL   CoordType=Cartesian   XorR=9   Y=1.5   Z=0   SpecialJt=No   GUID=7fa97f57-9c2a-4f8f-adbb-ceef8797ab2b
   Joint=602   CoordSys=GLOBAL   CoordType=Cartesian   XorR=-9   Y=4.5   Z=0   SpecialJt=No   GUID=cf6907b9-7675-42cd-a2b4-ec637b7920a9
   Joint=603   CoordSys=GLOBAL   CoordType=Cartesian   XorR=-6   Y=4.5   Z=0   SpecialJt=No   GUID=90fdaf32-1336-49fb-99c9-062db146a719
   Joint=604   CoordSys=GLOBAL   CoordType=Cartesian   XorR=-3   Y=4.5   Z=0   SpecialJt=No   GUID=d5cf5206-f029-4441-bfb6-ad5186e3e1f5
   Joint=605   CoordSys=GLOBAL   CoordType=Cartesian   XorR=0   Y=4.5   Z=0   SpecialJt=No   GUID=9e68459d-7a8e-44d2-92cc-11031fcfc168
   Joint=606   CoordSys=GLOBAL   CoordType=Cartesian   XorR=3   Y=4.5   Z=0   SpecialJt=No   GUID=ea083795-adee-4367-9233-8229f4eb0c4b
   Joint=607   CoordSys=GLOBAL   CoordType=Cartesian   XorR=6   Y=4.5   Z=0   SpecialJt=No   GUID=702617c4-3a89-4ed8-8069-9d7ec5285905
   Joint=608   CoordSys=GLOBAL   CoordType=Cartesian   XorR=9   Y=4.5   Z=0   SpecialJt=No   GUID=73fa8b6e-e76e-436e-b980-ff531d3b52f0
   Joint=609   CoordSys=GLOBAL   CoordType=Cartesian   XorR=-9   Y=5   Z=0   SpecialJt=No   GUID=3ebacdca-19a1-4cd0-95ff-95b95b955a87
   Joint=610   CoordSys=GLOBAL   CoordType=Cartesian   XorR=-6   Y=5   Z=0   SpecialJt=No   GUID=ab63bbd6-0cea-4ae8-836a-6cf8bfc78672
   Joint=611   CoordSys=GLOBAL   CoordType=Cartesian   XorR=-3   Y=5   Z=0   SpecialJt=No   GUID=e1355957-f984-455f-be6c-2201b3393352
   Joint=612   CoordSys=GLOBAL   CoordType=Cartesian   XorR=0   Y=5   Z=0   SpecialJt=No   GUID=0b438d5a-3f2a-4f5f-af72-51eda0ad1164
   Joint=613   CoordSys=GLOBAL   CoordType=Cartesian   XorR=3   Y=5   Z=0   SpecialJt=No   GUID=3475537b-fbb4-43f7-98e4-020cfffaac3c
   Joint=614   CoordSys=GLOBAL   CoordType=Cartesian   XorR=6   Y=5   Z=0   SpecialJt=No   GUID=1c7ebf0e-18f3-4222-8e77-8157b1d50921
   Joint=615   CoordSys=GLOBAL   CoordType=Cartesian   XorR=9   Y=5   Z=0   SpecialJt=No   GUID=5352cb0e-537f-4351-8baa-abae940848fd
   Joint=616   CoordSys=GLOBAL   CoordType=Cartesian   XorR=-10   Y=-4.5   Z=0   SpecialJt=No   GUID=ab0ab8d5-1a1e-4d7e-8beb-23a782327f19
   Joint=617   CoordSys=GLOBAL   CoordType=Cartesian   XorR=-10   Y=-1.5   Z=0   SpecialJt=No   GUID=a4b02f44-5c9d-4123-90df-b47582ab7f5e
   Joint=618   CoordSys=GLOBAL   CoordType=Cartesian   XorR=-10   Y=1.5   Z=0   SpecialJt=No   GUID=ac6e6fd3-31fa-4855-ac7e-98f739f16ba8
   Joint=619   CoordSys=GLOBAL   CoordType=Cartesian   XorR=-10   Y=4.5   Z=0   SpecialJt=No   GUID=5fc5a08c-cc5e-447c-ae09-bfce274d62c9
   Joint=620   CoordSys=GLOBAL   CoordType=Cartesian   XorR=10   Y=-4.5   Z=0   SpecialJt=No   GUID=9ccb300b-03ee-4fa1-912e-4324baff5188
   Joint=621   CoordSys=GLOBAL   CoordType=Cartesian   XorR=10   Y=-1.5   Z=0   SpecialJt=No   GUID=2ac0c30d-f4fd-41a2-8e6a-461f6219209f
   Joint=622   CoordSys=GLOBAL   CoordType=Cartesian   XorR=10   Y=1.5   Z=0   SpecialJt=No   GUID=40f1949e-b1de-4df8-9153-546922cffac2
   Joint=623   CoordSys=GLOBAL   CoordType=Cartesian   XorR=10   Y=4.5   Z=0   SpecialJt=No   GUID=023f310e-3d4b-44aa-962c-ddb3c56dd37a
   Joint=624   CoordSys=GLOBAL   CoordType=Cartesian   XorR=-9   Y=-4.5   Z=-3   SpecialJt=No   GUID=0bde958f-effc-4f29-98f2-837b940ad4ef
   Joint=625   CoordSys=GLOBAL   CoordType=Cartesian   XorR=-9   Y=-4.5   Z=-15.3193970727196   SpecialJt=No   GUID=78c09e91-4fb9-4fac-9163-a6c7615d812d
   Joint=626   CoordSys=GLOBAL   CoordType=Cartesian   XorR=-9   Y=-4.5   Z=-39   SpecialJt=No   GUID=bced464c-1cea-4e80-80c0-4069a924be60
   Joint=627   CoordSys=GLOBAL   CoordType=Cartesian   XorR=-6   Y=-4.5   Z=-3   SpecialJt=No   GUID=c1c26ee7-8225-4f99-b83e-18072c4984e7
   Joint=628   CoordSys=GLOBAL   CoordType=Cartesian   XorR=-6   Y=-4.5   Z=-15.3193970727196   SpecialJt=No   GUID=ad5469aa-ecd5-4b4b-97d6-f57789cb0f50
   Joint=629   CoordSys=GLOBAL   CoordType=Cartesian   XorR=-6   Y=-4.5   Z=-39   SpecialJt=No   GUID=ea3d280d-e065-493b-875e-bfd17deb8d32
   Joint=630   CoordSys=GLOBAL   CoordType=Cartesian   XorR=-3   Y=-4.5   Z=-3   SpecialJt=No   GUID=dc9421af-50e2-4108-a338-e3ea834e1142
   Joint=631   CoordSys=GLOBAL   CoordType=Cartesian   XorR=-3   Y=-4.5   Z=-15.3193970727196   SpecialJt=No   GUID=d986eeed-6861-4e48-9aa3-2693dd69bbf9
   Joint=632   CoordSys=GLOBAL   CoordType=Cartesian   XorR=-3   Y=-4.5   Z=-39   SpecialJt=No   GUID=bd3db172-3cbb-4d80-8855-f17d3b97c267
   Joint=633   CoordSys=GLOBAL   CoordType=Cartesian   XorR=0   Y=-4.5   Z=-3   SpecialJt=No   GUID=b554a4c6-a412-4f90-91cc-1d669f081edd
   Joint=634   CoordSys=GLOBAL   CoordType=Cartesian   XorR=0   Y=-4.5   Z=-15.3193970727196   SpecialJt=No   GUID=aedcc7bf-1eff-4a36-85fc-166383239b05
   Joint=635   CoordSys=GLOBAL   CoordType=Cartesian   XorR=0   Y=-4.5   Z=-39   SpecialJt=No   GUID=61d258bd-3823-4afb-a80c-911a8dbe6575
   Joint=636   CoordSys=GLOBAL   CoordType=Cartesian   XorR=3   Y=-4.5   Z=-3   SpecialJt=No   GUID=fd924507-deda-4440-a3f3-331fc0d07598
   Joint=637   CoordSys=GLOBAL   CoordType=Cartesian   XorR=3   Y=-4.5   Z=-15.3193970727196   SpecialJt=No   GUID=7e0b488a-05c8-45dc-8ee5-678637abbca9
   Joint=638   CoordSys=GLOBAL   CoordType=Cartesian   XorR=3   Y=-4.5   Z=-39   SpecialJt=No   GUID=d397e754-8534-4f5b-883c-2396ee649dc3
   Joint=639   CoordSys=GLOBAL   CoordType=Cartesian   XorR=6   Y=-4.5   Z=-3   SpecialJt=No   GUID=a441c9be-bd1a-401b-927e-7367a4d17c13
   Joint=640   CoordSys=GLOBAL   CoordType=Cartesian   XorR=6   Y=-4.5   Z=-15.3193970727196   SpecialJt=No   GUID=63a01b36-b704-4f62-bf8e-d1a44a2af947
   Joint=641   CoordSys=GLOBAL   CoordType=Cartesian   XorR=6   Y=-4.5   Z=-39   SpecialJt=No   GUID=a3aec443-b589-4e1c-bb74-7b3cdff5049c
   Joint=642   CoordSys=GLOBAL   CoordType=Cartesian   XorR=9   Y=-4.5   Z=-3   SpecialJt=No   GUID=68a799da-faae-48f2-b3a3-139f87417332
   Joint=643   CoordSys=GLOBAL   CoordType=Cartesian   XorR=9   Y=-4.5   Z=-15.3193970727196   SpecialJt=No   GUID=4538f145-97b8-4145-bb66-60fd4ee83683
   Joint=644   CoordSys=GLOBAL   CoordType=Cartesian   XorR=9   Y=-4.5   Z=-39   SpecialJt=No   GUID=456c8592-9636-4c69-a3d7-ddeec5fb86f1
   Joint=645   CoordSys=GLOBAL   CoordType=Cartesian   XorR=-9   Y=-1.5   Z=-15.3193970727196   SpecialJt=No   GUID=8141c791-78dc-44b9-8783-8ef6f42f5493
   Joint=646   CoordSys=GLOBAL   CoordType=Cartesian   XorR=-9   Y=-1.5   Z=-39   SpecialJt=No   GUID=d044abe5-0d43-4d1f-b5e2-e8756621fa07
   Joint=647   CoordSys=GLOBAL   CoordType=Cartesian   XorR=-6   Y=-1.5   Z=-15.3193970727196   SpecialJt=No   GUID=f8311c54-d9b7-4757-851d-1d59a0752f89
   Joint=648   CoordSys=GLOBAL   CoordType=Cartesian   XorR=-6   Y=-1.5   Z=-39   SpecialJt=No   GUID=accbbe10-b070-4cdf-8f78-de69da02ee4f
   Joint=649   CoordSys=GLOBAL   CoordType=Cartesian   XorR=-3   Y=-1.5   Z=-15.3193970727196   SpecialJt=No   GUID=f3241a44-e829-4f48-b6b0-059724bf6550
   Joint=650   CoordSys=GLOBAL   CoordType=Cartesian   XorR=-3   Y=-1.5   Z=-39   SpecialJt=No   GUID=d3684a03-289d-437d-8279-fc228bb02d43
   Joint=651   CoordSys=GLOBAL   CoordType=Cartesian   XorR=0   Y=-1.5   Z=-15.3193970727196   SpecialJt=No   GUID=a3ecb26f-cb17-43bd-bdc1-eee4532551d6
   Joint=652   CoordSys=GLOBAL   CoordType=Cartesian   XorR=0   Y=-1.5   Z=-39   SpecialJt=No   GUID=a6b3d96b-66c1-47a5-ae14-83b5faddc1b6
   Joint=653   CoordSys=GLOBAL   CoordType=Cartesian   XorR=3   Y=-1.5   Z=-15.3193970727196   SpecialJt=No   GUID=c210326c-860f-42ac-86ce-997aec847347
   Joint=654   CoordSys=GLOBAL   CoordType=Cartesian   XorR=3   Y=-1.5   Z=-39   SpecialJt=No   GUID=c7b2be95-265d-4557-92bf-513d0e0126ca
   Joint=655   CoordSys=GLOBAL   CoordType=Cartesian   XorR=6   Y=-1.5   Z=-15.3193970727196   SpecialJt=No   GUID=9e843d1d-6a4b-49f7-8629-0ea4d687ac20
   Joint=656   CoordSys=GLOBAL   CoordType=Cartesian   XorR=6   Y=-1.5   Z=-39   SpecialJt=No   GUID=b0effa50-4d28-4061-996f-39511aa71ba6
   Joint=657   CoordSys=GLOBAL   CoordType=Cartesian   XorR=9   Y=-1.5   Z=-15.3193970727196   SpecialJt=No   GUID=a3ed6054-c064-4d28-bb9f-9a193e5324d3
   Joint=658   CoordSys=GLOBAL   CoordType=Cartesian   XorR=9   Y=-1.5   Z=-39   SpecialJt=No   GUID=95c30e4a-40cc-4b57-aa8a-0e6b82f82c91
   Joint=659   CoordSys=GLOBAL   CoordType=Cartesian   XorR=-9   Y=1.5   Z=-15.3193970727196   SpecialJt=No   GUID=b19856c4-c7e3-4cf8-bad8-68a5fc5b8605
   Joint=660   CoordSys=GLOBAL   CoordType=Cartesian   XorR=-9   Y=1.5   Z=-39   SpecialJt=No   GUID=7a9c9f5f-7c3d-4b86-a815-7bb5697d10e0
   Joint=661   CoordSys=GLOBAL   CoordType=Cartesian   XorR=-6   Y=1.5   Z=-15.3193970727196   SpecialJt=No   GUID=765ebc35-72cf-4e6f-90f6-34e0a6753ca5
   Joint=662   CoordSys=GLOBAL   CoordType=Cartesian   XorR=-6   Y=1.5   Z=-39   SpecialJt=No   GUID=503ea963-b100-4719-8689-7e2c8110723d
   Joint=663   CoordSys=GLOBAL   CoordType=Cartesian   XorR=-3   Y=1.5   Z=-15.3193970727196   SpecialJt=No   GUID=fec8c6c7-51bc-45a7-a950-d6bf6a94433b
   Joint=664   CoordSys=GLOBAL   CoordType=Cartesian   XorR=-3   Y=1.5   Z=-39   SpecialJt=No   GUID=3771621d-4d1c-4ad1-a6e7-452437c74e30
   Joint=665   CoordSys=GLOBAL   CoordType=Cartesian   XorR=0   Y=1.5   Z=-15.3193970727196   SpecialJt=No   GUID=61981713-124a-4e7d-bc34-a810f038ffc7
   Joint=666   CoordSys=GLOBAL   CoordType=Cartesian   XorR=0   Y=1.5   Z=-39   SpecialJt=No   GUID=583a4c7d-8ed4-4fa6-ae7d-0763155d3413
   Joint=667   CoordSys=GLOBAL   CoordType=Cartesian   XorR=3   Y=1.5   Z=-15.3193970727196   SpecialJt=No   GUID=fcbce570-29b5-47ff-91b7-f550d491e6d1
   Joint=668   CoordSys=GLOBAL   CoordType=Cartesian   XorR=3   Y=1.5   Z=-39   SpecialJt=No   GUID=e5c94619-b078-47b5-8880-13a64fbd261e
   Joint=669   CoordSys=GLOBAL   CoordType=Cartesian   XorR=6   Y=1.5   Z=-15.3193970727196   SpecialJt=No   GUID=b88b0131-b294-425f-a451-51396d73fcce
   Joint=670   CoordSys=GLOBAL   CoordType=Cartesian   XorR=6   Y=1.5   Z=-39   SpecialJt=No   GUID=c61f007b-b89a-47a7-a6f3-35b7b0f97a68
   Joint=671   CoordSys=GLOBAL   CoordType=Cartesian   XorR=9   Y=1.5   Z=-15.3193970727196   SpecialJt=No   GUID=706ef69f-aa92-4e14-959b-7c5e444b832a
   Joint=672   CoordSys=GLOBAL   CoordType=Cartesian   XorR=9   Y=1.5   Z=-39   SpecialJt=No   GUID=0bc6900e-35f6-43ed-bcb3-19774cae1eb8
   Joint=673   CoordSys=GLOBAL   CoordType=Cartesian   XorR=-9   Y=4.5   Z=-15.3193970727196   SpecialJt=No   GUID=88133f32-4b96-493b-bef8-90823a1b8e4b
   Joint=674   CoordSys=GLOBAL   CoordType=Cartesian   XorR=-9   Y=4.5   Z=-39   SpecialJt=No   GUID=5080bc36-25aa-4dc9-be16-1db9e88d4a36
   Joint=675   CoordSys=GLOBAL   CoordType=Cartesian   XorR=-6   Y=4.5   Z=-15.3193970727196   SpecialJt=No   GUID=19649650-f1c8-4c72-a7d7-e88a7bc17a30
   Joint=676   CoordSys=GLOBAL   CoordType=Cartesian   XorR=-6   Y=4.5   Z=-39   SpecialJt=No   GUID=59a8baa3-8140-4754-b505-bcc53ab7b196
   Joint=677   CoordSys=GLOBAL   CoordType=Cartesian   XorR=-3   Y=4.5   Z=-15.3193970727196   SpecialJt=No   GUID=3bab5651-50ad-49c8-b74e-72ca0a7708ed
   Joint=678   CoordSys=GLOBAL   CoordType=Cartesian   XorR=-3   Y=4.5   Z=-39   SpecialJt=No   GUID=6d4c48e0-d9b2-454b-9633-474d2c845fd7
   Joint=679   CoordSys=GLOBAL   CoordType=Cartesian   XorR=0   Y=4.5   Z=-15.3193970727196   SpecialJt=No   GUID=1c9f336d-d1af-4907-af2a-a21b26c28880
   Joint=680   CoordSys=GLOBAL   CoordType=Cartesian   XorR=0   Y=4.5   Z=-39   SpecialJt=No   GUID=b38a33e1-c7a0-4229-81a6-93d8f8c66316
   Joint=681   CoordSys=GLOBAL   CoordType=Cartesian   XorR=3   Y=4.5   Z=-15.3193970727196   SpecialJt=No   GUID=ace884cc-3801-4167-915e-cb2d22df4a1b
   Joint=682   CoordSys=GLOBAL   CoordType=Cartesian   XorR=3   Y=4.5   Z=-39   SpecialJt=No   GUID=d3e26008-fca1-469b-955c-3610f667f23f
   Joint=683   CoordSys=GLOBAL   CoordType=Cartesian   XorR=6   Y=4.5   Z=-15.3193970727196   SpecialJt=No   GUID=f5e747ab-a70d-4bc4-9a6d-87dc457a0730
   Joint=684   CoordSys=GLOBAL   CoordType=Cartesian   XorR=6   Y=4.5   Z=-39   SpecialJt=No   GUID=e2fa15b9-5a4d-41c4-bf84-90a07b1b5d6b
   Joint=685   CoordSys=GLOBAL   CoordType=Cartesian   XorR=9   Y=4.5   Z=-15.3193970727196   SpecialJt=No   GUID=3f4feb97-22ea-4b72-b4ff-5e6723f04889
   Joint=686   CoordSys=GLOBAL   CoordType=Cartesian   XorR=9   Y=4.5   Z=-39   SpecialJt=No   GUID=07a7d241-44e5-42ca-a225-142567991f8f
   Joint=687   CoordSys=GLOBAL   CoordType=Cartesian   XorR=-10   Y=-5   Z=0   SpecialJt=No   GUID=5d441b77-be60-4a79-8f6b-a3673bf95a4e
   Joint=688   CoordSys=GLOBAL   CoordType=Cartesian   XorR=10   Y=-5   Z=0   SpecialJt=No   GUID=6634536e-d4f2-49dd-8ce2-5b20d5ae9980
   Joint=689   CoordSys=GLOBAL   CoordType=Cartesian   XorR=-10   Y=5   Z=0   SpecialJt=No   GUID=b477e8e4-f7fc-4fc0-b706-b7a06cb5fdf8
   Joint=690   CoordSys=GLOBAL   CoordType=Cartesian   XorR=10   Y=5   Z=0   SpecialJt=No   GUID=da647517-a889-49de-9ee1-978c7e83765a
 
TABLE:  "JOINT PATTERN DEFINITIONS"
   Pattern=Default
 
TABLE:  "JOINT RESTRAINT ASSIGNMENTS"
   Joint=625   U1=Yes   U2=Yes   U3=No   R1=Yes   R2=Yes   R3=Yes
   Joint=626   U1=No   U2=No   U3=Yes   R1=No   R2=No   R3=No
   Joint=628   U1=Yes   U2=Yes   U3=No   R1=Yes   R2=Yes   R3=Yes
   Joint=629   U1=No   U2=No   U3=Yes   R1=No   R2=No   R3=No
   Joint=631   U1=Yes   U2=Yes   U3=No   R1=Yes   R2=Yes   R3=Yes
   Joint=632   U1=No   U2=No   U3=Yes   R1=No   R2=No   R3=No
   Joint=634   U1=Yes   U2=Yes   U3=No   R1=Yes   R2=Yes   R3=Yes
   Joint=635   U1=No   U2=No   U3=Yes   R1=No   R2=No   R3=No
   Joint=637   U1=Yes   U2=Yes   U3=No   R1=Yes   R2=Yes   R3=Yes
   Joint=638   U1=No   U2=No   U3=Yes   R1=No   R2=No   R3=No
   Joint=640   U1=Yes   U2=Yes   U3=No   R1=Yes   R2=Yes   R3=Yes
   Joint=641   U1=No   U2=No   U3=Yes   R1=No   R2=No   R3=No
   Joint=643   U1=Yes   U2=Yes   U3=No   R1=Yes   R2=Yes   R3=Yes
   Joint=644   U1=No   U2=No   U3=Yes   R1=No   R2=No   R3=No
   Joint=645   U1=Yes   U2=Yes   U3=No   R1=Yes   R2=Yes   R3=Yes
   Joint=646   U1=No   U2=No   U3=Yes   R1=No   R2=No   R3=No
   Joint=647   U1=Yes   U2=Yes   U3=No   R1=Yes   R2=Yes   R3=Yes
   Joint=648   U1=No   U2=No   U3=Yes   R1=No   R2=No   R3=No
   Joint=649   U1=Yes   U2=Yes   U3=No   R1=Yes   R2=Yes   R3=Yes
   Joint=650   U1=No   U2=No   U3=Yes   R1=No   R2=No   R3=No
   Joint=651   U1=Yes   U2=Yes   U3=No   R1=Yes   R2=Yes   R3=Yes
   Joint=652   U1=No   U2=No   U3=Yes   R1=No   R2=No   R3=No
   Joint=653   U1=Yes   U2=Yes   U3=No   R1=Yes   R2=Yes   R3=Yes
   Joint=654   U1=No   U2=No   U3=Yes   R1=No   R2=No   R3=No
   Joint=655   U1=Yes   U2=Yes   U3=No   R1=Yes   R2=Yes   R3=Yes
   Joint=656   U1=No   U2=No   U3=Yes   R1=No   R2=No   R3=No
   Joint=657   U1=Yes   U2=Yes   U3=No   R1=Yes   R2=Yes   R3=Yes
   Joint=658   U1=No   U2=No   U3=Yes   R1=No   R2=No   R3=No
   Joint=659   U1=Yes   U2=Yes   U3=No   R1=Yes   R2=Yes   R3=Yes
   Joint=660   U1=No   U2=No   U3=Yes   R1=No   R2=No   R3=No
   Joint=661   U1=Yes   U2=Yes   U3=No   R1=Yes   R2=Yes   R3=Yes
   Joint=662   U1=No   U2=No   U3=Yes   R1=No   R2=No   R3=No
   Joint=663   U1=Yes   U2=Yes   U3=No   R1=Yes   R2=Yes   R3=Yes
   Joint=664   U1=No   U2=No   U3=Yes   R1=No   R2=No   R3=No
   Joint=665   U1=Yes   U2=Yes   U3=No   R1=Yes   R2=Yes   R3=Yes
   Joint=666   U1=No   U2=No   U3=Yes   R1=No   R2=No   R3=No
   Joint=667   U1=Yes   U2=Yes   U3=No   R1=Yes   R2=Yes   R3=Yes
   Joint=668   U1=No   U2=No   U3=Yes   R1=No   R2=No   R3=No
   Joint=669   U1=Yes   U2=Yes   U3=No   R1=Yes   R2=Yes   R3=Yes
   Joint=670   U1=No   U2=No   U3=Yes   R1=No   R2=No   R3=No
# ... 16 like lines cut
 
TABLE:  "LOAD CASE DEFINITIONS"
   Case=DEAD   Type=LinStatic   InitialCond=Zero   DesTypeOpt="Prog Det"   DesignType=Dead   DesActOpt="Prog Det"   DesignAct=Non-Composite   AutoType=None   RunCase=Yes
   Case=MODAL   Type=LinModal   InitialCond=Zero   DesTypeOpt="Prog Det"   DesignType=Other   DesActOpt="Prog Det"   DesignAct=Other   AutoType=None   RunCase=Yes
   Case=LL   Type=LinStatic   InitialCond=Zero   DesTypeOpt="Prog Det"   DesignType=Live   DesActOpt="Prog Det"   DesignAct="Short-Term Composite"   AutoType=None   RunCase=Yes
 
TABLE:  "LOAD PATTERN DEFINITIONS"
   LoadPat=DEAD   DesignType=Dead   SelfWtMult=1
   LoadPat=LL   DesignType=Live   SelfWtMult=0
 
TABLE:  "MASS SOURCE"
   MassSource=MSSSRC1   Elements=Yes   Masses=Yes   Loads=No   IsDefault=Yes
 
TABLE:  "MATERIAL PROPERTIES 01 - GENERAL"
   Material=A706   Type=Rebar   SymType=Uniaxial   TempDepend=No   Color=Gray8Dark   GUID=30185aab-1311-4f4b-9ffe-ddad707d22d9   Notes="ASTM A706 added 8/23/2025 4:27:57 PM"
   Material=BTCT   Type=Concrete   SymType=Isotropic   TempDepend=No   Color=Blue   Notes="Concrete added 24-Feb-23 16:30:01"
   Material=BTCTCOC   Type=Concrete   SymType=Isotropic   TempDepend=No   Color=Blue   Notes="Concrete added 24-Feb-23 16:30:01"
   Material=Steel   Type=Steel   SymType=Isotropic   TempDepend=No   Color=Magenta   GUID=2f952889-4898-4964-97a4-5fb5c5008d33   Notes="Steel added 8/24/2025 2:51:43 PM"
   Material=Tendon   Type=Tendon   SymType=Uniaxial   TempDepend=No   Color=Yellow   GUID=7dfcd093-823e-4b3a-b96f-35d5bcaf456f   Notes="Tendon added 8/24/2025 2:51:43 PM"
 
TABLE:  "MATERIAL PROPERTIES 02 - BASIC MECHANICAL PROPERTIES"
   Material=A706   UnitWeight=7.84904757236607   UnitMass=0.800380070686609   E1=20389019.1580383   A1=1.16999994421006E-05
   Material=BTCT   UnitWeight=2.40276966501002   UnitMass=0.245014307353044   E1=2900000   G12=1208333.33333333   U12=0.2   A1=9.9E-06
   Material=BTCTCOC   UnitWeight=2.40276966501002   UnitMass=0.245014307353044   E1=3800000000   G12=1583333333.33333   U12=0.2   A1=9.9E-06
   Material=Steel   UnitWeight=7.84904757236607   UnitMass=0.800380070686609   E1=20389019.1580383   G12=7841930.44539935   U12=0.3   A1=1.17E-05
   Material=Tendon   UnitWeight=7.84904757236607   UnitMass=0.800380070686609   E1=20037484.3449687   A1=1.16999994421006E-05
 
TABLE:  "MATERIAL PROPERTIES 03A - STEEL DATA"
   Material=Steel   Fy=35153.4813069626   Fu=45699.5256990514   EffFy=38668.8294376589   EffFu=50269.4782689565   SSCurveOpt=Simple   SSHysType=Kinematic   SHard=0.015   SMax=0.11   SRup=0.17   FinalSlope=-0.1   CoupModType="Von Mises"
 
TABLE:  "MATERIAL PROPERTIES 03B - CONCRETE DATA"
   Material=BTCT   Fc=2812.27850455701   eFc=2812.27850455701   LtWtConc=No   SSCurveOpt=Mander   SSHysType=Takeda   SFc=0.002   SCap=0.005   FinalSlope=-0.1   FAngle=0   DAngle=0   CoupModType="Modified Darwin-Pecknold"
   Material=BTCTCOC   Fc=2812.27850455701   eFc=2812.27850455701   LtWtConc=No   SSCurveOpt=Mander   SSHysType=Takeda   SFc=0.002   SCap=0.005   FinalSlope=-0.1   FAngle=0   DAngle=0   CoupModType="Modified Darwin-Pecknold"
 
TABLE:  "MATERIAL PROPERTIES 03E - REBAR DATA"
   Material=A706   Fy=42184.1775683551   Fu=56245.5700911402   EffFy=46402.5953251907   EffFu=61870.1271002542   SSCurveOpt=Simple   SSHysType=Kinematic   SHard=0.011   SCap=0.11   FinalSlope=-0.1   UseCTDef=No   CoupModType="Von Mises"
 
TABLE:  "MATERIAL PROPERTIES 03F - TENDON DATA"
   Material=Tendon   Fy=172322.365366731   Fu=189828.799057598   SSCurveOpt="270 ksi"   SSHysType=Kinematic   FinalSlope=-0.1   CoupModType="Von Mises"
 
TABLE:  "MATERIAL PROPERTIES 03J - COUPLED NONLINEAR VON MISES DATA"
   Material=A706   YieldStress=46402.5953251907   LinIsoHard=No   LinKinHard=No   NLIsoSaHard=No
   Material=Steel   YieldStress=38668.8294376589   LinIsoHard=No   LinKinHard=No   NLIsoSaHard=No
   Material=Tendon   YieldStress=172322.365366731   LinIsoHard=No   LinKinHard=No   NLIsoSaHard=No
 
TABLE:  "MATERIAL PROPERTIES 06 - DAMPING PARAMETERS"
   Material=A706   ModalRatio=0   VisMass=0   VisStiff=0   HysMass=0   HysStiff=0
   Material=BTCT   ModalRatio=0   VisMass=0   VisStiff=0   HysMass=0   HysStiff=0
   Material=BTCTCOC   ModalRatio=0   VisMass=0   VisStiff=0   HysMass=0   HysStiff=0
   Material=Steel   ModalRatio=0   VisMass=0   VisStiff=0   HysMass=0   HysStiff=0
   Material=Tendon   ModalRatio=0   VisMass=0   VisStiff=0   HysMass=0   HysStiff=0
 
TABLE:  "MATERIAL PROPERTIES 09 - ACCEPTANCE CRITERIA"
   Material=A706   IOTens=0.01   LSTens=0.02   CPTens=0.05   IOComp=-0.005   LSComp=-0.01   CPComp=-0.02
   Material=BTCT   IOTens=0.01   LSTens=0.02   CPTens=0.05   IOComp=-0.003   LSComp=-0.006   CPComp=-0.015   IgnoreTens=Yes
   Material=BTCTCOC   IOTens=0.01   LSTens=0.02   CPTens=0.05   IOComp=-0.003   LSComp=-0.006   CPComp=-0.015   IgnoreTens=Yes
   Material=Steel   IOTens=0.01   LSTens=0.02   CPTens=0.05   IOComp=-0.005   LSComp=-0.01   CPComp=-0.02
   Material=Tendon   IOTens=0.015   LSTens=0.023   CPTens=0.03   IOComp=-0.015   LSComp=-0.023   CPComp=-0.03
 
TABLE:  "OPTIONS - COLORS - DISPLAY"
   DeviceType=Screen   Points=Blue   LinesFrame=Blue   LinesFrmDL=Blue   LinesCable=Green   LinesTendon=Green   SpringLinks=Green   Restraints=Green   Releases=Green   Axes=Cyan   Text=Black   ShadowLines=Gray8Dark   GuideLines=Gray8Dark _
        Highlight=Red   Selection=10504778   AreaFillBot=Red   AreaFillTop=16744703   AreaFillSd=Red   AreaEdge=DarkRed   SolidF1=Red   SolidF2=Blue   SolidF3=Green   SolidF4=Yellow   SolidF5=White   SolidF6=Cyan   SolidEdge=DarkRed _
        Floor=Gray4   Background=White   BGLowLeft=White   BGLowRight=White   BGUpRight=White   Darkness=0.5
   DeviceType=Printer   Points=Gray8Dark   LinesFrame=Black   LinesFrmDL=Gray4   LinesCable=Black   LinesTendon=Black   SpringLinks=Gray8Dark   Restraints=Gray8Dark   Releases=Gray4   Axes=Black   Text=Black   ShadowLines=Gray4 _
        GuideLines=Gray4   Highlight=Black   Selection=Black   AreaFillBot=Gray4   AreaFillTop=Gray8Dark   AreaFillSd=Gray4   AreaEdge=Black   SolidF1=Gray1Light   SolidF2=Gray2   SolidF3=Gray3   SolidF4=Gray4   SolidF5=Gray5 _
        SolidF6=Gray6   SolidEdge=Black   Floor=Gray4   Background=White   BGLowLeft=White   BGLowRight=White   BGUpRight=White   Darkness=0.5
   DeviceType="Color Printer"   Points=Blue   LinesFrame=Blue   LinesFrmDL=Blue   LinesCable=Green   LinesTendon=Green   SpringLinks=Green   Restraints=Green   Releases=Green   Axes=Cyan   Text=Black   ShadowLines=Gray8Dark _
        GuideLines=Gray8Dark   Highlight=Red   Selection=10504778   AreaFillBot=Red   AreaFillTop=16744703   AreaFillSd=Red   AreaEdge=DarkRed   SolidF1=Red   SolidF2=Blue   SolidF3=Green   SolidF4=Yellow   SolidF5=White   SolidF6=Cyan _
        SolidEdge=DarkRed   Floor=Gray4   Background=White   BGLowLeft=White   BGLowRight=White   BGUpRight=White   Darkness=0.5
 
TABLE:  "OPTIONS - COLORS - OUTPUT"
   DeviceType=Screen   Contour1=13107400   Contour2=6553828   Contour3=Red   Contour4=16639   Contour5=Orange   Contour6=43775   Contour7=54527   Contour8=Yellow   Contour9=65408   Contour10=Green   Contour11=8453888   Contour12=Cyan _
        Contour13=16755200   Contour14=16733440   Contour15=Blue   Transpare=0.5   Ratio1=Cyan   Ratio2=Green   Ratio3=Yellow   Ratio4=Orange   Ratio5=Red   RatioNotD=Gray4   RatioNotC=Red   RatioVal1=0.5   RatioVal2=0.7   RatioVal3=0.9 _
        RatioVal4=1   DFillPos=Blue   DFillNeg=Red   DFillRPos=Green   DFillRNeg=Green
   DeviceType=Printer   Contour1=Black   Contour2=3158064   Contour3=4210752   Contour4=5263440   Contour5=6316128   Contour6=7368816   Contour7=Gray8Dark   Contour8=Gray7   Contour9=Gray6   Contour10=Gray5   Contour11=Gray4 _
        Contour12=Gray3   Contour13=Gray2   Contour14=Gray1Light   Contour15=White   Transpare=0   Ratio1=Gray2   Ratio2=Gray4   Ratio3=Gray8Dark   Ratio4=4210752   Ratio5=Black   RatioNotD=Gray4   RatioNotC=Black   RatioVal1=0.5 _
        RatioVal2=0.7   RatioVal3=0.9   RatioVal4=1   DFillPos=Gray8Dark   DFillNeg=Gray8Dark   DFillRPos=4210752   DFillRNeg=4210752
   DeviceType="Color Printer"   Contour1=13107400   Contour2=6553828   Contour3=Red   Contour4=16639   Contour5=Orange   Contour6=43775   Contour7=54527   Contour8=Yellow   Contour9=65408   Contour10=Green   Contour11=8453888 _
        Contour12=Cyan   Contour13=16755200   Contour14=16733440   Contour15=Blue   Transpare=0   Ratio1=Cyan   Ratio2=Green   Ratio3=Yellow   Ratio4=Orange   Ratio5=Red   RatioNotD=Gray4   RatioNotC=Red   RatioVal1=0.5   RatioVal2=0.7 _
        RatioVal3=0.9   RatioVal4=1   DFillPos=Blue   DFillNeg=Red   DFillRPos=Green   DFillRNeg=Green
 
TABLE:  "OVERWRITES - CONCRETE DESIGN - CSA-A233-14"
   Frame=658   DesignSect="Program Determined"   FrameType="Program Determined"   RLLF=0   XLMajor=0   XLMinor=0   XKMajor=0   XKMinor=0   CmMajor=0   CmMinor=0   DbMajor=0   DbMinor=0   DsMajor=0   DsMinor=0   Rd=0   Ro=0   MaxAggSize=0
   Frame=659   DesignSect="Program Determined"   FrameType="Program Determined"   RLLF=0   XLMajor=0   XLMinor=0   XKMajor=0   XKMinor=0   CmMajor=0   CmMinor=0   DbMajor=0   DbMinor=0   DsMajor=0   DsMinor=0   Rd=0   Ro=0   MaxAggSize=0
   Frame=660   DesignSect="Program Determined"   FrameType="Program Determined"   RLLF=0   XLMajor=0   XLMinor=0   XKMajor=0   XKMinor=0   CmMajor=0   CmMinor=0   DbMajor=0   DbMinor=0   DsMajor=0   DsMinor=0   Rd=0   Ro=0   MaxAggSize=0
   Frame=661   DesignSect="Program Determined"   FrameType="Program Determined"   RLLF=0   XLMajor=0   XLMinor=0   XKMajor=0   XKMinor=0   CmMajor=0   CmMinor=0   DbMajor=0   DbMinor=0   DsMajor=0   DsMinor=0   Rd=0   Ro=0   MaxAggSize=0
   Frame=662   DesignSect="Program Determined"   FrameType="Program Determined"   RLLF=0   XLMajor=0   XLMinor=0   XKMajor=0   XKMinor=0   CmMajor=0   CmMinor=0   DbMajor=0   DbMinor=0   DsMajor=0   DsMinor=0   Rd=0   Ro=0   MaxAggSize=0
   Frame=663   DesignSect="Program Determined"   FrameType="Program Determined"   RLLF=0   XLMajor=0   XLMinor=0   XKMajor=0   XKMinor=0   CmMajor=0   CmMinor=0   DbMajor=0   DbMinor=0   DsMajor=0   DsMinor=0   Rd=0   Ro=0   MaxAggSize=0
   Frame=664   DesignSect="Program Determined"   FrameType="Program Determined"   RLLF=0   XLMajor=0   XLMinor=0   XKMajor=0   XKMinor=0   CmMajor=0   CmMinor=0   DbMajor=0   DbMinor=0   DsMajor=0   DsMinor=0   Rd=0   Ro=0   MaxAggSize=0
   Frame=665   DesignSect="Program Determined"   FrameType="Program Determined"   RLLF=0   XLMajor=0   XLMinor=0   XKMajor=0   XKMinor=0   CmMajor=0   CmMinor=0   DbMajor=0   DbMinor=0   DsMajor=0   DsMinor=0   Rd=0   Ro=0   MaxAggSize=0
   Frame=666   DesignSect="Program Determined"   FrameType="Program Determined"   RLLF=0   XLMajor=0   XLMinor=0   XKMajor=0   XKMinor=0   CmMajor=0   CmMinor=0   DbMajor=0   DbMinor=0   DsMajor=0   DsMinor=0   Rd=0   Ro=0   MaxAggSize=0
   Frame=667   DesignSect="Program Determined"   FrameType="Program Determined"   RLLF=0   XLMajor=0   XLMinor=0   XKMajor=0   XKMinor=0   CmMajor=0   CmMinor=0   DbMajor=0   DbMinor=0   DsMajor=0   DsMinor=0   Rd=0   Ro=0   MaxAggSize=0
   Frame=668   DesignSect="Program Determined"   FrameType="Program Determined"   RLLF=0   XLMajor=0   XLMinor=0   XKMajor=0   XKMinor=0   CmMajor=0   CmMinor=0   DbMajor=0   DbMinor=0   DsMajor=0   DsMinor=0   Rd=0   Ro=0   MaxAggSize=0
   Frame=669   DesignSect="Program Determined"   FrameType="Program Determined"   RLLF=0   XLMajor=0   XLMinor=0   XKMajor=0   XKMinor=0   CmMajor=0   CmMinor=0   DbMajor=0   DbMinor=0   DsMajor=0   DsMinor=0   Rd=0   Ro=0   MaxAggSize=0
   Frame=670   DesignSect="Program Determined"   FrameType="Program Determined"   RLLF=0   XLMajor=0   XLMinor=0   XKMajor=0   XKMinor=0   CmMajor=0   CmMinor=0   DbMajor=0   DbMinor=0   DsMajor=0   DsMinor=0   Rd=0   Ro=0   MaxAggSize=0
   Frame=671   DesignSect="Program Determined"   FrameType="Program Determined"   RLLF=0   XLMajor=0   XLMinor=0   XKMajor=0   XKMinor=0   CmMajor=0   CmMinor=0   DbMajor=0   DbMinor=0   DsMajor=0   DsMinor=0   Rd=0   Ro=0   MaxAggSize=0
   Frame=672   DesignSect="Program Determined"   FrameType="Program Determined"   RLLF=0   XLMajor=0   XLMinor=0   XKMajor=0   XKMinor=0   CmMajor=0   CmMinor=0   DbMajor=0   DbMinor=0   DsMajor=0   DsMinor=0   Rd=0   Ro=0   MaxAggSize=0
   Frame=673   DesignSect="Program Determined"   FrameType="Program Determined"   RLLF=0   XLMajor=0   XLMinor=0   XKMajor=0   XKMinor=0   CmMajor=0   CmMinor=0   DbMajor=0   DbMinor=0   DsMajor=0   DsMinor=0   Rd=0   Ro=0   MaxAggSize=0
   Frame=674   DesignSect="Program Determined"   FrameType="Program Determined"   RLLF=0   XLMajor=0   XLMinor=0   XKMajor=0   XKMinor=0   CmMajor=0   CmMinor=0   DbMajor=0   DbMinor=0   DsMajor=0   DsMinor=0   Rd=0   Ro=0   MaxAggSize=0
   Frame=675   DesignSect="Program Determined"   FrameType="Program Determined"   RLLF=0   XLMajor=0   XLMinor=0   XKMajor=0   XKMinor=0   CmMajor=0   CmMinor=0   DbMajor=0   DbMinor=0   DsMajor=0   DsMinor=0   Rd=0   Ro=0   MaxAggSize=0
   Frame=676   DesignSect="Program Determined"   FrameType="Program Determined"   RLLF=0   XLMajor=0   XLMinor=0   XKMajor=0   XKMinor=0   CmMajor=0   CmMinor=0   DbMajor=0   DbMinor=0   DsMajor=0   DsMinor=0   Rd=0   Ro=0   MaxAggSize=0
   Frame=677   DesignSect="Program Determined"   FrameType="Program Determined"   RLLF=0   XLMajor=0   XLMinor=0   XKMajor=0   XKMinor=0   CmMajor=0   CmMinor=0   DbMajor=0   DbMinor=0   DsMajor=0   DsMinor=0   Rd=0   Ro=0   MaxAggSize=0
# ... 60 like lines cut
 
TABLE:  "PREFERENCES - ALUMINUM DESIGN - AA 2015"
   THDesign=Envelopes   SRatioLimit=1   Provision=ASD   LatFact=1.33333333333333   UseLatFact=No   Bridge=No   OmegaTy=1.65   OmegaTr=1.95   OmegaC=1.65   OmegaBo=1.65   OmegaBr=1.95   OmegaVo=1.65   OmegaVr=1.95
 
TABLE:  "PREFERENCES - COLD FORMED DESIGN - AISI-ASD96"
   THDesign=Envelopes   FrameType="Braced Frame"   SRatioLimit=1   MaxIter=1   OmegaBS=1.67   OmegaBUS=1.67   OmegaBLTB=1.67   OmegaVS=1.67   OmegaVNS=1.5   OmegaT=1.67   OmegaC=1.8
 
TABLE:  "PREFERENCES - CONCRETE DESIGN - CSA-A233-14"
   THDesign=Envelopes   NumCurves=24   NumPoints=11   MinEccen=Yes   BCCDesign=Yes   CTorsion=Yes   PatLLF=0.75   UFLimit=0.95   PhiS=0.85   PhiC=0.65
 
TABLE:  "PREFERENCES - CONCRETE SHELL DESIGN - EUROCODE 2-2004"
   Country="CEN Default"   GammaS=1.15   GammaC=1.5   AlphaCC=1
 
TABLE:  "PREFERENCES - DIMENSIONAL"
   MergeTol=0.001   FineGrid=0.25   Nudge=0.25   SelectTol=3   SnapTol=12   SLineThick=1   PLineThick=4   MaxFont=8   MinFont=3   AutoZoom=10   ShrinkFact=70   TextFileLen=240
 
TABLE:  "PREFERENCES - STEEL DESIGN - AISC 360-10"
   THDesign=Envelopes   FrameType=SMF   PatLLF=0.75   SRatioLimit=0.95   MaxIter=1   SDC=D   SeisCode=No   SeisLoad=No   ImpFactor=1   SystemRho=1   SystemSds=0.5   SystemR=8   SystemCd=5.5   Omega0=3   Provision=LRFD _
        AMethod="Direct Analysis"   SOMethod="General 2nd Order"   SRMethod="Tau-b Fixed"   NLCoeff=0.002   PhiB=0.9   PhiC=0.9   PhiTY=0.9   PhiTF=0.75   PhiV=0.9   PhiVRolledI=1   PhiVT=0.9   PlugWeld=Yes   HSSWelding=ERW   HSSReduceT=No _
        CheckDefl=No   DLRat=120   SDLAndLLRat=120   LLRat=360   TotalRat=240   NetRat=240
 
TABLE:  "PROGRAM CONTROL"
   ProgramName=SAP2000   Version=24.0.0   CurrUnits="Tonf, m, C"   SteelCode="AISC 360-10"   ConcCode="CSA A23.3-14"   AlumCode="AA 2015"   ColdCode=AISI-ASD96   RegenHinge=Yes
 
TABLE:  "PROJECT INFORMATION"
   Item="Company Name"   Data=po
   Item="Client Name"
   Item="Project Name"
   Item="Project Number"
   Item="Model Name"
   Item="Model Description"
   Item="Revision Number"
   Item="Frame Type"
   Item=Engineer
   Item=Checker
   Item=Supervisor
   Item="Issue Code"
   Item="Design Code"
 
TABLE:  "REBAR SIZES"
   RebarID=#2   Area=3.2258E-05   Diameter=0.00635
   RebarID=#3   Area=7.09675996154547E-05   Diameter=0.009525
   RebarID=#4   Area=0.000129032001922727   Diameter=0.0127
   RebarID=#5   Area=0.000199999601538181   Diameter=0.015875
   RebarID=#6   Area=0.000283870398461819   Diameter=0.01905
   RebarID=#7   Area=0.000387096015381813   Diameter=0.022225
   RebarID=#8   Area=0.000509676413843632   Diameter=0.0254
   RebarID=#9   Area=0.00064516   Diameter=0.0286512005329132
   RebarID=#10   Area=0.00081935318769455   Diameter=0.0322579995155334
   RebarID=#11   Area=0.00100644956308365   Diameter=0.0358139991521835
   RebarID=#14   Area=0.00145161   Diameter=0.0430021989583969
   RebarID=#18   Area=0.00258064   Diameter=0.0573277992248535
   RebarID=10M   Area=0.000100000004162606   Diameter=0.0113000003604438
   RebarID=15M   Area=0.000200000008325212   Diameter=0.0160000002402959
   RebarID=20M   Area=0.000300000012487818   Diameter=0.0195000002928606
   RebarID=25M   Area=0.000500000020813031   Diameter=0.0252000011414055
   RebarID=30M   Area=0.000700000029138243   Diameter=0.0299000000675832
   RebarID=35M   Area=0.00100000004162606   Diameter=0.0357000012990997
   RebarID=45M   Area=0.00150000006243909   Diameter=0.0437000014192476
   RebarID=55M   Area=0.00250000010406515   Diameter=0.056400002372922
   RebarID=6d   Area=2.83000004150781E-05   Diameter=0.00600000009011096
   RebarID=8d   Area=5.03000013308514E-05   Diameter=0.00800000012014795
   RebarID=10d   Area=7.85000032676458E-05   Diameter=0.0100000001501849
   RebarID=12d   Area=0.000113000004703745   Diameter=0.0120000001802219
   RebarID=14d   Area=0.000154000006410413   Diameter=0.0140000002102589
   RebarID=16d   Area=0.000201000008366838   Diameter=0.0160000002402959
   RebarID=20d   Area=0.000314000013070583   Diameter=0.0200000003003699
   RebarID=25d   Area=0.000491000020438396   Diameter=0.0250000003754623
   RebarID=26d   Area=0.000531000022103439   Diameter=0.0260000003904808
   RebarID=28d   Area=0.000616000025641654   Diameter=0.0280000004205178
   RebarID=N12   Area=0.000113000004703745   Diameter=0.0120000001802219
   RebarID=N16   Area=0.000201000008366838   Diameter=0.0160000002402959
   RebarID=N20   Area=0.000314000013070583   Diameter=0.0200000003003699
   RebarID=N24   Area=0.00045200001881498   Diameter=0.0240000003604438
   RebarID=N28   Area=0.000616000025641654   Diameter=0.0280000004205178
   RebarID=N32   Area=0.000804000033467353   Diameter=0.0320000004805918
   RebarID=N36   Area=0.00102000004245858   Diameter=0.0360000005406658
 
TABLE:  "SOLID PROPERTY DEFINITIONS"
   SolidProp=Solid1   Material=BTCT   MatAngleA=0   MatAngleB=0   MatAngleC=0   InComp=Yes   Color=Gray8Dark
 
END TABLE DATA
