File D:\ResearchLab\02_Projects\02_Projects\Tap chi XD_SFOA\code\SOO_MPJ\MPJ_Sap\SOO_Cost_W02\MPJ_2.$2k was saved on m/d/yy at h:mm:ss
 
TABLE:  "ACTIVE DEGREES OF FREEDOM"
   UX=Yes   UY=Yes   UZ=Yes   RX=Yes   RY=Yes   RZ=Yes
 
TABLE:  "ANALYSIS OPTIONS"
   Solver=Advanced   SolverProc=Auto   Force32Bit=No   StiffCase=None   GeomMod=None   HingeOpt="In Elements"   NumAThreads=0   MaxFileSize=0   NumDThreads=0   NumRThreads=0   UseMMFiles="Program Determined"   AllowDiff=No
 
TABLE:  "AREA AUTO MESH ASSIGNMENTS"
   Area=228151   MeshType="Number of Elements"   MeshGroup=ALL   Number1=3   Number2=3   LocalEdge=No   LocalFace=No   SuppEdge=No   SuppFace=No   SubMesh=No
   Area=228152   MeshType="Number of Elements"   MeshGroup=ALL   Number1=3   Number2=3   LocalEdge=No   LocalFace=No   SuppEdge=No   SuppFace=No   SubMesh=No
   Area=228153   MeshType="Number of Elements"   MeshGroup=ALL   Number1=3   Number2=3   LocalEdge=No   LocalFace=No   SuppEdge=No   SuppFace=No   SubMesh=No
   Area=228154   MeshType="Number of Elements"   MeshGroup=ALL   Number1=3   Number2=3   LocalEdge=No   LocalFace=No   SuppEdge=No   SuppFace=No   SubMesh=No
   Area=228155   MeshType="Number of Elements"   MeshGroup=ALL   Number1=3   Number2=3   LocalEdge=No   LocalFace=No   SuppEdge=No   SuppFace=No   SubMesh=No
   Area=228156   MeshType="Number of Elements"   MeshGroup=ALL   Number1=3   Number2=3   LocalEdge=No   LocalFace=No   SuppEdge=No   SuppFace=No   SubMesh=No
   Area=228157   MeshType="Number of Elements"   MeshGroup=ALL   Number1=3   Number2=3   LocalEdge=No   LocalFace=No   SuppEdge=No   SuppFace=No   SubMesh=No
   Area=228158   MeshType="Number of Elements"   MeshGroup=ALL   Number1=3   Number2=3   LocalEdge=No   LocalFace=No   SuppEdge=No   SuppFace=No   SubMesh=No
   Area=228159   MeshType="Number of Elements"   MeshGroup=ALL   Number1=3   Number2=3   LocalEdge=No   LocalFace=No   SuppEdge=No   SuppFace=No   SubMesh=No
   Area=228160   MeshType="Number of Elements"   MeshGroup=ALL   Number1=3   Number2=3   LocalEdge=No   LocalFace=No   SuppEdge=No   SuppFace=No   SubMesh=No
   Area=228161   MeshType="Number of Elements"   MeshGroup=ALL   Number1=3   Number2=3   LocalEdge=No   LocalFace=No   SuppEdge=No   SuppFace=No   SubMesh=No
   Area=228162   MeshType="Number of Elements"   MeshGroup=ALL   Number1=3   Number2=3   LocalEdge=No   LocalFace=No   SuppEdge=No   SuppFace=No   SubMesh=No
   Area=228163   MeshType="Number of Elements"   MeshGroup=ALL   Number1=3   Number2=3   LocalEdge=No   LocalFace=No   SuppEdge=No   SuppFace=No   SubMesh=No
   Area=228164   MeshType="Number of Elements"   MeshGroup=ALL   Number1=3   Number2=3   LocalEdge=No   LocalFace=No   SuppEdge=No   SuppFace=No   SubMesh=No
   Area=228165   MeshType="Number of Elements"   MeshGroup=ALL   Number1=3   Number2=3   LocalEdge=No   LocalFace=No   SuppEdge=No   SuppFace=No   SubMesh=No
   Area=228166   MeshType="Number of Elements"   MeshGroup=ALL   Number1=3   Number2=3   LocalEdge=No   LocalFace=No   SuppEdge=No   SuppFace=No   SubMesh=No
   Area=228167   MeshType="Number of Elements"   MeshGroup=ALL   Number1=3   Number2=3   LocalEdge=No   LocalFace=No   SuppEdge=No   SuppFace=No   SubMesh=No
   Area=228168   MeshType="Number of Elements"   MeshGroup=ALL   Number1=3   Number2=3   LocalEdge=No   LocalFace=No   SuppEdge=No   SuppFace=No   SubMesh=No
   Area=228169   MeshType="Number of Elements"   MeshGroup=ALL   Number1=3   Number2=3   LocalEdge=No   LocalFace=No   SuppEdge=No   SuppFace=No   SubMesh=No
   Area=228170   MeshType="Number of Elements"   MeshGroup=ALL   Number1=3   Number2=3   LocalEdge=No   LocalFace=No   SuppEdge=No   SuppFace=No   SubMesh=No
# ... 4 like lines cut
 
TABLE:  "AREA LOADS - UNIFORM"
   Area=228151   LoadPat=LL   CoordSys=GLOBAL   Dir=Gravity   UnifLoad=1.00034158457019
   Area=228152   LoadPat=LL   CoordSys=GLOBAL   Dir=Gravity   UnifLoad=1.00034158457019
   Area=228153   LoadPat=LL   CoordSys=GLOBAL   Dir=Gravity   UnifLoad=1.00034158457019
   Area=228154   LoadPat=LL   CoordSys=GLOBAL   Dir=Gravity   UnifLoad=1.00034158457019
   Area=228155   LoadPat=LL   CoordSys=GLOBAL   Dir=Gravity   UnifLoad=1.00034158457019
   Area=228156   LoadPat=LL   CoordSys=GLOBAL   Dir=Gravity   UnifLoad=1.00034158457019
   Area=228157   LoadPat=LL   CoordSys=GLOBAL   Dir=Gravity   UnifLoad=1.00034158457019
   Area=228158   LoadPat=LL   CoordSys=GLOBAL   Dir=Gravity   UnifLoad=1.00034158457019
   Area=228159   LoadPat=LL   CoordSys=GLOBAL   Dir=Gravity   UnifLoad=1.00034158457019
   Area=228160   LoadPat=LL   CoordSys=GLOBAL   Dir=Gravity   UnifLoad=1.00034158457019
   Area=228161   LoadPat=LL   CoordSys=GLOBAL   Dir=Gravity   UnifLoad=1.00034158457019
   Area=228162   LoadPat=LL   CoordSys=GLOBAL   Dir=Gravity   UnifLoad=1.00034158457019
   Area=228163   LoadPat=LL   CoordSys=GLOBAL   Dir=Gravity   UnifLoad=1.00034158457019
   Area=228164   LoadPat=LL   CoordSys=GLOBAL   Dir=Gravity   UnifLoad=1.00034158457019
   Area=228165   LoadPat=LL   CoordSys=GLOBAL   Dir=Gravity   UnifLoad=1.00034158457019
   Area=228166   LoadPat=LL   CoordSys=GLOBAL   Dir=Gravity   UnifLoad=1.00034158457019
   Area=228167   LoadPat=LL   CoordSys=GLOBAL   Dir=Gravity   UnifLoad=1.00034158457019
   Area=228168   LoadPat=LL   CoordSys=GLOBAL   Dir=Gravity   UnifLoad=1.00034158457019
   Area=228169   LoadPat=LL   CoordSys=GLOBAL   Dir=Gravity   UnifLoad=1.00034158457019
   Area=228170   LoadPat=LL   CoordSys=GLOBAL   Dir=Gravity   UnifLoad=1.00034158457019
# ... 4 like lines cut
 
TABLE:  "AREA SECTION ASSIGNMENTS"
   Area=228151   Section=Deck   MatProp=Default
   Area=228152   Section=Deck   MatProp=Default
   Area=228153   Section=Deck   MatProp=Default
   Area=228154   Section=Deck   MatProp=Default
   Area=228155   Section=Deck   MatProp=Default
   Area=228156   Section=Deck   MatProp=Default
   Area=228157   Section=Deck   MatProp=Default
   Area=228158   Section=Deck   MatProp=Default
   Area=228159   Section=Deck   MatProp=Default
   Area=228160   Section=Deck   MatProp=Default
   Area=228161   Section=Deck   MatProp=Default
   Area=228162   Section=Deck   MatProp=Default
   Area=228163   Section=Deck   MatProp=Default
   Area=228164   Section=Deck   MatProp=Default
   Area=228165   Section=Deck   MatProp=Default
   Area=228166   Section=Deck   MatProp=Default
   Area=228167   Section=Deck   MatProp=Default
   Area=228168   Section=Deck   MatProp=Default
   Area=228169   Section=Deck   MatProp=Default
   Area=228170   Section=Deck   MatProp=Default
# ... 4 like lines cut
 
TABLE:  "AREA SECTION PROPERTIES"
   Section=Deck   Material=BTCT   MatAngle=0   AreaType=Shell   Type=Shell-Thin   DrillDOF=Yes   Thickness=0.3   BendThick=0.3   Color=Green   F11Mod=1   F22Mod=1   F12Mod=1   M11Mod=1   M22Mod=1   M12Mod=1   V13Mod=1   V23Mod=1   MMod=1 _
        WMod=1   Notes="Added 24-Feb-23 16:56:47"
 
TABLE:  "AREA SECTION PROPERTY DESIGN PARAMETERS"
   Section=Deck   RebarMat=None   RebarOpt=Default
 
TABLE:  "AREA SECTION PROPERTY - TIME DEPENDENT"
   Section=Deck   TypeSize=User   AutoSFSize=1   UserValSize=0.1
 
TABLE:  "AUTO COMBINATION OPTION DATA 01 - GENERAL"
   DesignType=Concrete   AutoGen=Yes
 
TABLE:  "AUTO COMBINATION OPTION DATA 02 - USER DATA"
   DesignType=Concrete   LSType=Strength   LCName=DEAD
   DesignType=Concrete   LSType=Strength   LCName=LL
 
TABLE:  "AUTO WAVE 3 - WAVE CHARACTERISTICS - GENERAL"
   WaveChar=Default   WaveType="From Theory"   KinFactor=1   SWaterDepth=45   WaveHeight=18   WavePeriod=12   WaveTheory=Linear
 
TABLE:  "CASE - MODAL 1 - GENERAL"
   Case=MODAL   ModeType=Eigen   MaxNumModes=12   MinNumModes=1   EigenShift=0   EigenCutoff=0   EigenTol=1E-09   AutoShift=Yes
 
TABLE:  "CASE - STATIC 1 - LOAD ASSIGNMENTS"
   Case=DEAD   LoadType="Load pattern"   LoadName=DEAD   LoadSF=1
   Case=LL   LoadType="Load pattern"   LoadName=LL   LoadSF=1
 
TABLE:  "COMBINATION DEFINITIONS"
   ComboName=COMB1   ComboType="Linear Add"   AutoDesign=No   CaseName=DEAD   ScaleFactor=1   SteelDesign=None   ConcDesign=Strength   AlumDesign=None   ColdDesign=None
   ComboName=COMB2   ComboType="Linear Add"   AutoDesign=No   CaseName=DEAD   ScaleFactor=1   SteelDesign=None   ConcDesign=Strength   AlumDesign=None   ColdDesign=None
   ComboName=COMB2   CaseName=LL   ScaleFactor=1
   ComboName=BAO   ComboType=Envelope   AutoDesign=No   CaseName=COMB1   ScaleFactor=1   SteelDesign=None   ConcDesign=Strength   AlumDesign=None   ColdDesign=None
   ComboName=BAO   CaseName=COMB2   ScaleFactor=1
   ComboName=DCON1   ComboType="Linear Add"   AutoDesign=Yes   CaseName=DEAD   ScaleFactor=1.4   SteelDesign=None   ConcDesign=Strength   AlumDesign=None   ColdDesign=None   GUID=bb4fff9a-98b5-44d1-9fde-34d92700a8e9   Notes="Dead Only; Strength"
   ComboName=DCON2   ComboType="Linear Add"   AutoDesign=Yes   CaseName=DEAD   ScaleFactor=1.25   SteelDesign=None   ConcDesign=Strength   AlumDesign=None   ColdDesign=None   GUID=505bcda7-6fac-4dd0-b03e-c591d1ffc6ce   Notes="Dead + Live; Strength"
   ComboName=DCON2   CaseName=LL   ScaleFactor=1.5
 
TABLE:  "CONNECTIVITY - AREA"
   Area=228151   Joint1=668564   Joint2=668525   Joint3=668498   Joint4=668497   GUID=f3e3328c-af54-4257-890d-616310aa4f02
   Area=228152   Joint1=668497   Joint2=668498   Joint3=668500   Joint4=668499   GUID=91fc8c15-65da-47f9-95d6-349145e49ac0
   Area=228153   Joint1=668499   Joint2=668500   Joint3=668502   Joint4=668501   GUID=eb4cb7b5-ddcc-4d6d-af7f-15d59591ae01
   Area=228154   Joint1=668501   Joint2=668502   Joint3=668504   Joint4=668503   GUID=134f37c9-8114-4483-ac84-4859142e72c4
   Area=228155   Joint1=668503   Joint2=668504   Joint3=668506   Joint4=668505   GUID=f2db82ec-7424-4b58-98c2-10c34b6034fd
   Area=228156   Joint1=668505   Joint2=668506   Joint3=668508   Joint4=668507   GUID=0c1612b7-7f03-4015-ad5b-d0fe030d7a29
   Area=228157   Joint1=668507   Joint2=668508   Joint3=668510   Joint4=668509   GUID=ab3bb77a-a7a9-42db-80c0-3aff1355b2d8
   Area=228158   Joint1=668509   Joint2=668510   Joint3=668527   Joint4=668565   GUID=4c9ae87d-e685-4a2d-96fa-d801ac9f1fd2
   Area=228159   Joint1=668525   Joint2=668526   Joint3=668511   Joint4=668498   GUID=7ba66383-05b9-4334-82e2-f190b184961c
   Area=228160   Joint1=668498   Joint2=668511   Joint3=668512   Joint4=668500   GUID=d6453f3a-6e11-4fe4-85a5-35d5adacb75c
   Area=228161   Joint1=668500   Joint2=668512   Joint3=668513   Joint4=668502   GUID=06ba098a-6aa7-4b18-b27a-89e669cd2ed9
   Area=228162   Joint1=668502   Joint2=668513   Joint3=668514   Joint4=668504   GUID=00b224b4-14de-420f-95d4-4de8367e87e5
   Area=228163   Joint1=668504   Joint2=668514   Joint3=668515   Joint4=668506   GUID=78651e7f-da3e-41f9-bd11-a02b4051f050
   Area=228164   Joint1=668506   Joint2=668515   Joint3=668516   Joint4=668508   GUID=6cddef8e-b817-4052-b7b9-beaf03ee9515
   Area=228165   Joint1=668508   Joint2=668516   Joint3=668517   Joint4=668510   GUID=5570e402-1076-4ec2-8797-0196e7b56a2e
   Area=228166   Joint1=668510   Joint2=668517   Joint3=668528   Joint4=668527   GUID=e45a4af8-519b-44cb-bc48-ed5ea3e26296
   Area=228167   Joint1=668526   Joint2=668566   Joint3=668518   Joint4=668511   GUID=e58a0a44-f14d-4c2e-9ba6-385474454d10
   Area=228168   Joint1=668511   Joint2=668518   Joint3=668519   Joint4=668512   GUID=ff8fc59b-4324-45d3-84e9-9bab75b6d8f9
   Area=228169   Joint1=668512   Joint2=668519   Joint3=668520   Joint4=668513   GUID=38f58316-d480-4564-ace5-976ec44ce2d4
   Area=228170   Joint1=668513   Joint2=668520   Joint3=668521   Joint4=668514   GUID=c0a03a46-aa69-49e4-bdf7-2a8fd035c411
   Area=228171   Joint1=668514   Joint2=668521   Joint3=668522   Joint4=668515   GUID=4b928265-7005-40b3-a4a6-052206b7cbd8
   Area=228172   Joint1=668515   Joint2=668522   Joint3=668523   Joint4=668516   GUID=0a85a40a-0cbf-4451-b9a9-387eea5862f4
   Area=228173   Joint1=668516   Joint2=668523   Joint3=668524   Joint4=668517   GUID=c9392541-c30a-431c-88e9-7a30cfed35cf
   Area=228174   Joint1=668517   Joint2=668524   Joint3=668567   Joint4=668528   GUID=1814b0ba-f7bd-43fb-b7c3-dcd38c8ab08b
 
TABLE:  "CONNECTIVITY - FRAME"
   Frame=748971   JointI=668497   JointJ=668498   IsCurved=No   GUID=083af066-d936-4bc5-b74c-a0ad2db6dcc1
   Frame=748972   JointI=668499   JointJ=668500   IsCurved=No   GUID=3793e395-2c73-4c01-be44-54643096e78c
   Frame=748973   JointI=668501   JointJ=668502   IsCurved=No   GUID=0445f3fd-9799-445b-8bec-f5efb5af5f0e
   Frame=748974   JointI=668503   JointJ=668504   IsCurved=No   GUID=1e24fd60-def5-4953-9a8b-e5e0581d7aa0
   Frame=748975   JointI=668505   JointJ=668506   IsCurved=No   GUID=4defc980-b213-407f-bbcd-6cb7bda23e22
   Frame=748976   JointI=668507   JointJ=668508   IsCurved=No   GUID=b482a50a-1d8b-4423-954b-10cc06de1fb9
   Frame=748977   JointI=668509   JointJ=668510   IsCurved=No   GUID=fe837fda-810e-483b-bb7e-198ccebb349b
   Frame=748978   JointI=668498   JointJ=668511   IsCurved=No   GUID=560ebc38-f60e-4305-b715-25de41f3e6fa
   Frame=748979   JointI=668500   JointJ=668512   IsCurved=No   GUID=e5f1411c-1c00-4ade-ac51-7eb6ac2426c5
   Frame=748980   JointI=668502   JointJ=668513   IsCurved=No   GUID=c5753021-a932-4c14-8f9f-a805ccff2d36
   Frame=748981   JointI=668504   JointJ=668514   IsCurved=No   GUID=c68e31fc-0ee5-4154-91f6-c2762752a79c
   Frame=748982   JointI=668506   JointJ=668515   IsCurved=No   GUID=d0f9d7f3-ecb4-4651-a0d4-b6c7b1ffa549
   Frame=748983   JointI=668508   JointJ=668516   IsCurved=No   GUID=45c91ff0-b9f4-4386-a462-ec5b6b8efa32
   Frame=748984   JointI=668510   JointJ=668517   IsCurved=No   GUID=21c28b44-a8f6-4279-b6af-650c9828a529
   Frame=748985   JointI=668511   JointJ=668518   IsCurved=No   GUID=d50c4ea2-2340-4ee4-a302-15bff77388d3
   Frame=748986   JointI=668512   JointJ=668519   IsCurved=No   GUID=862cd02b-afba-40fc-b590-4fffad07a27e
   Frame=748987   JointI=668513   JointJ=668520   IsCurved=No   GUID=c21bc5a2-1c53-4757-b6f7-7afa2834df29
   Frame=748988   JointI=668514   JointJ=668521   IsCurved=No   GUID=f66cbe6e-3af1-420d-9759-ddbfe4c3aef6
   Frame=748989   JointI=668515   JointJ=668522   IsCurved=No   GUID=a8314a3e-a6ef-451c-a233-8cf2f90568a7
   Frame=748990   JointI=668516   JointJ=668523   IsCurved=No   GUID=8ea6f2a0-8beb-4d21-a02b-81f414c0a35a
   Frame=748991   JointI=668517   JointJ=668524   IsCurved=No   GUID=5816a114-19c9-481b-91c5-255de7407c52
   Frame=748992   JointI=668525   JointJ=668498   IsCurved=No   GUID=51759ff4-4864-44e6-80e7-cfbfbb08aac6
   Frame=748993   JointI=668526   JointJ=668511   IsCurved=No   GUID=6938c2dc-3da9-471c-a997-023bb60c3ff4
   Frame=748994   JointI=668498   JointJ=668500   IsCurved=No   GUID=ca6cdef4-2f62-4263-9898-e06cd9d878c2
   Frame=748995   JointI=668511   JointJ=668512   IsCurved=No   GUID=735ad962-3281-46f5-a6bd-235d2cca6bcd
   Frame=748996   JointI=668500   JointJ=668502   IsCurved=No   GUID=e7798710-270a-47e3-a72d-aaeaf5af9685
   Frame=748997   JointI=668512   JointJ=668513   IsCurved=No   GUID=85187ec1-2fec-45c3-ba5e-b835c8e44502
   Frame=748998   JointI=668502   JointJ=668504   IsCurved=No   GUID=9aaf57aa-131a-436d-b31b-927860dcca88
   Frame=748999   JointI=668513   JointJ=668514   IsCurved=No   GUID=08e95004-3aea-4f39-8439-ab66b2595371
   Frame=749000   JointI=668504   JointJ=668506   IsCurved=No   GUID=65ebbd34-89c9-43ca-9915-ac26d2c6fea4
   Frame=749001   JointI=668514   JointJ=668515   IsCurved=No   GUID=31e11498-72e0-46c6-a989-387caadff5d0
   Frame=749002   JointI=668506   JointJ=668508   IsCurved=No   GUID=656475f5-283d-4943-98ed-4baec99a8fad
   Frame=749003   JointI=668515   JointJ=668516   IsCurved=No   GUID=f95e9870-d25d-48c8-b16c-fcd72db0ef29
   Frame=749004   JointI=668508   JointJ=668510   IsCurved=No   GUID=1c86dec7-feba-40b5-b619-820e52cb7002
   Frame=749005   JointI=668516   JointJ=668517   IsCurved=No   GUID=b14b8cc8-5a54-4504-a6e9-138f7b051e4d
   Frame=749006   JointI=668510   JointJ=668527   IsCurved=No   GUID=c2cccd07-54f2-4a05-8034-7be35c7ef0d7
   Frame=749007   JointI=668517   JointJ=668528   IsCurved=No   GUID=b3b6af69-e68f-4666-aab8-8f564501e384
   Frame=749008   JointI=668498   JointJ=668529   IsCurved=No   GUID=b8263cb1-e460-41aa-8d4a-737a66e285e3
   Frame=749009   JointI=668529   JointJ=668530   IsCurved=No   GUID=62bd5ad4-5e20-47fb-8f9d-096ab71e304a
   Frame=749010   JointI=668530   JointJ=668531   IsCurved=No   GUID=7ef338fe-1ec1-4f39-ad55-d4e0de2086a3
   Frame=749011   JointI=668500   JointJ=668532   IsCurved=No   GUID=805a7298-e037-4d5d-918b-b64a4662f054
   Frame=749012   JointI=668532   JointJ=668533   IsCurved=No   GUID=fd68320c-d091-441c-979e-f1eed7f38202
   Frame=749013   JointI=668533   JointJ=668534   IsCurved=No   GUID=d394c621-c628-43c8-984f-afd071799447
   Frame=749014   JointI=668502   JointJ=668535   IsCurved=No   GUID=ca5144a7-2369-4a6e-a19d-7dea3b38a114
   Frame=749015   JointI=668535   JointJ=668536   IsCurved=No   GUID=0782c92d-b979-41db-8b46-68ad5f96fee4
   Frame=749016   JointI=668536   JointJ=668537   IsCurved=No   GUID=d69fd3c5-a5f3-4c9a-8b4c-35d31725dc7b
   Frame=749017   JointI=668504   JointJ=668538   IsCurved=No   GUID=984d8388-6aa0-4d10-b1d1-7479ad96e298
   Frame=749018   JointI=668538   JointJ=668539   IsCurved=No   GUID=940fe7e7-714a-4572-a13d-07e06e764e36
   Frame=749019   JointI=668539   JointJ=668540   IsCurved=No   GUID=18be70fe-ee41-4956-b14e-cf334a48771f
   Frame=749020   JointI=668506   JointJ=668541   IsCurved=No   GUID=c16bc881-e5a4-44f9-b330-c358af87e582
   Frame=749021   JointI=668541   JointJ=668542   IsCurved=No   GUID=80ab3341-7e51-41d1-808a-9415fff1c3d9
   Frame=749022   JointI=668542   JointJ=668543   IsCurved=No   GUID=6a32c1cf-de43-47f5-81a8-8d7be0c99ba8
   Frame=749023   JointI=668508   JointJ=668544   IsCurved=No   GUID=fcf95972-b5c1-457b-b338-314a041225f8
   Frame=749024   JointI=668544   JointJ=668545   IsCurved=No   GUID=d332fa23-091a-4a32-9912-d888b485221b
   Frame=749025   JointI=668545   JointJ=668546   IsCurved=No   GUID=1d04ff09-2c5b-46d5-a99a-46a0d7dc0023
   Frame=749026   JointI=668510   JointJ=668547   IsCurved=No   GUID=30f147ae-3bb5-42a9-97cf-40a151a2e92a
   Frame=749027   JointI=668547   JointJ=668548   IsCurved=No   GUID=d46d44fc-5a1f-4c56-b031-b66f56df9d90
   Frame=749028   JointI=668548   JointJ=668549   IsCurved=No   GUID=daef2e1b-c125-4a0c-997e-41f197ed26a5
   Frame=749029   JointI=668511   JointJ=668550   IsCurved=No   GUID=d3e50940-9d41-4684-b37a-6bc2c9cd0068
   Frame=749030   JointI=668550   JointJ=668551   IsCurved=No   GUID=48ab0bbf-725d-4dc5-a2d6-0ea43d69b739
   Frame=749031   JointI=668512   JointJ=668552   IsCurved=No   GUID=4bd01d8c-5c38-4915-8f9d-8698a536a4a0
   Frame=749032   JointI=668552   JointJ=668553   IsCurved=No   GUID=5263f0bf-d153-4c60-b6f2-591e216c398f
   Frame=749033   JointI=668513   JointJ=668554   IsCurved=No   GUID=363eeb14-caa6-4c98-94be-3cfcb0d7a170
   Frame=749034   JointI=668554   JointJ=668555   IsCurved=No   GUID=9b05104f-00d7-43c5-87cd-742c9eec2921
   Frame=749035   JointI=668514   JointJ=668556   IsCurved=No   GUID=c541fce0-3861-4267-a5e7-c97261d2ebe0
   Frame=749036   JointI=668556   JointJ=668557   IsCurved=No   GUID=e4fcff36-ab38-4551-abff-cc611ef1c858
   Frame=749037   JointI=668515   JointJ=668558   IsCurved=No   GUID=64c15926-e7de-4877-a366-d1e28b0ff346
   Frame=749038   JointI=668558   JointJ=668559   IsCurved=No   GUID=c9002aca-1b82-4949-9962-c7fcdb890b53
   Frame=749039   JointI=668516   JointJ=668560   IsCurved=No   GUID=7490be76-7a87-484d-92e4-52c8da5fd436
   Frame=749040   JointI=668560   JointJ=668561   IsCurved=No   GUID=246c24db-4b15-460e-b28c-7794dd36a16a
   Frame=749041   JointI=668517   JointJ=668562   IsCurved=No   GUID=5e72f504-7e87-45ae-b88c-32d987487997
   Frame=749042   JointI=668562   JointJ=668563   IsCurved=No   GUID=eb11ce4d-969a-4d62-9db5-e8ae1e1f4c81
   Frame=749043   JointI=668529   JointJ=668532   IsCurved=No   GUID=e305d48f-5df8-49b8-9e7f-43daa7cf2903
   Frame=749044   JointI=668532   JointJ=668535   IsCurved=No   GUID=9d9f02d4-78cb-49d3-955a-5ca987cb2c3f
   Frame=749045   JointI=668535   JointJ=668538   IsCurved=No   GUID=177088a1-f5b1-406b-ad5a-34c472d58a0e
   Frame=749046   JointI=668538   JointJ=668541   IsCurved=No   GUID=8a0f886f-1376-41ed-8ab6-3f0188d78752
   Frame=749047   JointI=668541   JointJ=668544   IsCurved=No   GUID=c809ae79-3936-4859-a563-38ad50bd978a
   Frame=749048   JointI=668544   JointJ=668547   IsCurved=No   GUID=7a606fe7-0ad6-4d82-ac94-ec78e00d9ddd
 
TABLE:  "COORDINATE SYSTEMS"
   Name=GLOBAL   Type=Cartesian   X=0   Y=0   Z=0   AboutZ=0   AboutY=0   AboutX=0
 
TABLE:  "DATABASE DOCUMENTATION"
 
TABLE:  "DATABASE FORMAT TYPES"
   UnitsCurr=Yes   OverrideE=No
 
TABLE:  "FRAME AUTO MESH ASSIGNMENTS"
   Frame=748971   AutoMesh=Yes   AtJoints=Yes   AtFrames=No   NumSegments=0   MaxLength=0   MaxDegrees=0
   Frame=748972   AutoMesh=Yes   AtJoints=Yes   AtFrames=No   NumSegments=0   MaxLength=0   MaxDegrees=0
   Frame=748973   AutoMesh=Yes   AtJoints=Yes   AtFrames=No   NumSegments=0   MaxLength=0   MaxDegrees=0
   Frame=748974   AutoMesh=Yes   AtJoints=Yes   AtFrames=No   NumSegments=0   MaxLength=0   MaxDegrees=0
   Frame=748975   AutoMesh=Yes   AtJoints=Yes   AtFrames=No   NumSegments=0   MaxLength=0   MaxDegrees=0
   Frame=748976   AutoMesh=Yes   AtJoints=Yes   AtFrames=No   NumSegments=0   MaxLength=0   MaxDegrees=0
   Frame=748977   AutoMesh=Yes   AtJoints=Yes   AtFrames=No   NumSegments=0   MaxLength=0   MaxDegrees=0
   Frame=748978   AutoMesh=Yes   AtJoints=Yes   AtFrames=No   NumSegments=0   MaxLength=0   MaxDegrees=0
   Frame=748979   AutoMesh=Yes   AtJoints=Yes   AtFrames=No   NumSegments=0   MaxLength=0   MaxDegrees=0
   Frame=748980   AutoMesh=Yes   AtJoints=Yes   AtFrames=No   NumSegments=0   MaxLength=0   MaxDegrees=0
   Frame=748981   AutoMesh=Yes   AtJoints=Yes   AtFrames=No   NumSegments=0   MaxLength=0   MaxDegrees=0
   Frame=748982   AutoMesh=Yes   AtJoints=Yes   AtFrames=No   NumSegments=0   MaxLength=0   MaxDegrees=0
   Frame=748983   AutoMesh=Yes   AtJoints=Yes   AtFrames=No   NumSegments=0   MaxLength=0   MaxDegrees=0
   Frame=748984   AutoMesh=Yes   AtJoints=Yes   AtFrames=No   NumSegments=0   MaxLength=0   MaxDegrees=0
   Frame=748985   AutoMesh=Yes   AtJoints=Yes   AtFrames=No   NumSegments=0   MaxLength=0   MaxDegrees=0
   Frame=748986   AutoMesh=Yes   AtJoints=Yes   AtFrames=No   NumSegments=0   MaxLength=0   MaxDegrees=0
   Frame=748987   AutoMesh=Yes   AtJoints=Yes   AtFrames=No   NumSegments=0   MaxLength=0   MaxDegrees=0
   Frame=748988   AutoMesh=Yes   AtJoints=Yes   AtFrames=No   NumSegments=0   MaxLength=0   MaxDegrees=0
   Frame=748989   AutoMesh=Yes   AtJoints=Yes   AtFrames=No   NumSegments=0   MaxLength=0   MaxDegrees=0
   Frame=748990   AutoMesh=Yes   AtJoints=Yes   AtFrames=No   NumSegments=0   MaxLength=0   MaxDegrees=0
# ... 58 like lines cut
 
TABLE:  "FRAME DESIGN PROCEDURES"
   Frame=748971   DesignProc="From Material"
   Frame=748972   DesignProc="From Material"
   Frame=748973   DesignProc="From Material"
   Frame=748974   DesignProc="From Material"
   Frame=748975   DesignProc="From Material"
   Frame=748976   DesignProc="From Material"
   Frame=748977   DesignProc="From Material"
   Frame=748978   DesignProc="From Material"
   Frame=748979   DesignProc="From Material"
   Frame=748980   DesignProc="From Material"
   Frame=748981   DesignProc="From Material"
   Frame=748982   DesignProc="From Material"
   Frame=748983   DesignProc="From Material"
   Frame=748984   DesignProc="From Material"
   Frame=748985   DesignProc="From Material"
   Frame=748986   DesignProc="From Material"
   Frame=748987   DesignProc="From Material"
   Frame=748988   DesignProc="From Material"
   Frame=748989   DesignProc="From Material"
   Frame=748990   DesignProc="From Material"
# ... 18 like lines cut
   Frame=749009   DesignProc="No Design"
   Frame=749010   DesignProc="No Design"
   Frame=749011   DesignProc="From Material"
   Frame=749012   DesignProc="No Design"
   Frame=749013   DesignProc="No Design"
   Frame=749014   DesignProc="From Material"
   Frame=749015   DesignProc="No Design"
   Frame=749016   DesignProc="No Design"
   Frame=749017   DesignProc="From Material"
   Frame=749018   DesignProc="No Design"
   Frame=749019   DesignProc="No Design"
   Frame=749020   DesignProc="From Material"
   Frame=749021   DesignProc="No Design"
   Frame=749022   DesignProc="No Design"
   Frame=749023   DesignProc="From Material"
   Frame=749024   DesignProc="No Design"
   Frame=749025   DesignProc="No Design"
   Frame=749026   DesignProc="From Material"
   Frame=749027   DesignProc="No Design"
   Frame=749028   DesignProc="No Design"
   Frame=749029   DesignProc="No Design"
   Frame=749030   DesignProc="No Design"
   Frame=749031   DesignProc="No Design"
   Frame=749032   DesignProc="No Design"
   Frame=749033   DesignProc="No Design"
   Frame=749034   DesignProc="No Design"
   Frame=749035   DesignProc="No Design"
   Frame=749036   DesignProc="No Design"
   Frame=749037   DesignProc="No Design"
   Frame=749038   DesignProc="No Design"
   Frame=749039   DesignProc="No Design"
   Frame=749040   DesignProc="No Design"
   Frame=749041   DesignProc="No Design"
   Frame=749042   DesignProc="No Design"
   Frame=749043   DesignProc="From Material"
   Frame=749044   DesignProc="From Material"
   Frame=749045   DesignProc="From Material"
   Frame=749046   DesignProc="From Material"
   Frame=749047   DesignProc="From Material"
   Frame=749048   DesignProc="From Material"
 
TABLE:  "FRAME LOAD TRANSFER OPTIONS"
   Frame=748971   Transfer=Yes
   Frame=748972   Transfer=Yes
   Frame=748973   Transfer=Yes
   Frame=748974   Transfer=Yes
   Frame=748975   Transfer=Yes
   Frame=748976   Transfer=Yes
   Frame=748977   Transfer=Yes
   Frame=748978   Transfer=Yes
   Frame=748979   Transfer=Yes
   Frame=748980   Transfer=Yes
   Frame=748981   Transfer=Yes
   Frame=748982   Transfer=Yes
   Frame=748983   Transfer=Yes
   Frame=748984   Transfer=Yes
   Frame=748985   Transfer=Yes
   Frame=748986   Transfer=Yes
   Frame=748987   Transfer=Yes
   Frame=748988   Transfer=Yes
   Frame=748989   Transfer=Yes
   Frame=748990   Transfer=Yes
# ... 58 like lines cut
 
TABLE:  "FRAME LOCAL AXES ASSIGNMENTS 1 - TYPICAL"
   Frame=749008   Angle=90
   Frame=749011   Angle=90
   Frame=749014   Angle=90
   Frame=749017   Angle=90
   Frame=749020   Angle=90
   Frame=749023   Angle=90
   Frame=749026   Angle=90
 
TABLE:  "FRAME OUTPUT STATION ASSIGNMENTS"
   Frame=748971   StationType=MaxStaSpcg   MaxStaSpcg=0.5   AddAtElmInt=Yes   AddAtPtLoad=Yes
   Frame=748972   StationType=MaxStaSpcg   MaxStaSpcg=0.5   AddAtElmInt=Yes   AddAtPtLoad=Yes
   Frame=748973   StationType=MaxStaSpcg   MaxStaSpcg=0.5   AddAtElmInt=Yes   AddAtPtLoad=Yes
   Frame=748974   StationType=MaxStaSpcg   MaxStaSpcg=0.5   AddAtElmInt=Yes   AddAtPtLoad=Yes
   Frame=748975   StationType=MaxStaSpcg   MaxStaSpcg=0.5   AddAtElmInt=Yes   AddAtPtLoad=Yes
   Frame=748976   StationType=MaxStaSpcg   MaxStaSpcg=0.5   AddAtElmInt=Yes   AddAtPtLoad=Yes
   Frame=748977   StationType=MaxStaSpcg   MaxStaSpcg=0.5   AddAtElmInt=Yes   AddAtPtLoad=Yes
   Frame=748978   StationType=MaxStaSpcg   MaxStaSpcg=0.5   AddAtElmInt=Yes   AddAtPtLoad=Yes
   Frame=748979   StationType=MaxStaSpcg   MaxStaSpcg=0.5   AddAtElmInt=Yes   AddAtPtLoad=Yes
   Frame=748980   StationType=MaxStaSpcg   MaxStaSpcg=0.5   AddAtElmInt=Yes   AddAtPtLoad=Yes
   Frame=748981   StationType=MaxStaSpcg   MaxStaSpcg=0.5   AddAtElmInt=Yes   AddAtPtLoad=Yes
   Frame=748982   StationType=MaxStaSpcg   MaxStaSpcg=0.5   AddAtElmInt=Yes   AddAtPtLoad=Yes
   Frame=748983   StationType=MaxStaSpcg   MaxStaSpcg=0.5   AddAtElmInt=Yes   AddAtPtLoad=Yes
   Frame=748984   StationType=MaxStaSpcg   MaxStaSpcg=0.5   AddAtElmInt=Yes   AddAtPtLoad=Yes
   Frame=748985   StationType=MaxStaSpcg   MaxStaSpcg=0.5   AddAtElmInt=Yes   AddAtPtLoad=Yes
   Frame=748986   StationType=MaxStaSpcg   MaxStaSpcg=0.5   AddAtElmInt=Yes   AddAtPtLoad=Yes
   Frame=748987   StationType=MaxStaSpcg   MaxStaSpcg=0.5   AddAtElmInt=Yes   AddAtPtLoad=Yes
   Frame=748988   StationType=MaxStaSpcg   MaxStaSpcg=0.5   AddAtElmInt=Yes   AddAtPtLoad=Yes
   Frame=748989   StationType=MaxStaSpcg   MaxStaSpcg=0.5   AddAtElmInt=Yes   AddAtPtLoad=Yes
   Frame=748990   StationType=MaxStaSpcg   MaxStaSpcg=0.5   AddAtElmInt=Yes   AddAtPtLoad=Yes
# ... 17 like lines cut
   Frame=749008   StationType=MinNumSta   MinNumSta=3   AddAtElmInt=Yes   AddAtPtLoad=Yes
   Frame=749009   StationType=MinNumSta   MinNumSta=3   AddAtElmInt=Yes   AddAtPtLoad=Yes
   Frame=749010   StationType=MinNumSta   MinNumSta=3   AddAtElmInt=Yes   AddAtPtLoad=Yes
   Frame=749011   StationType=MinNumSta   MinNumSta=3   AddAtElmInt=Yes   AddAtPtLoad=Yes
   Frame=749012   StationType=MinNumSta   MinNumSta=3   AddAtElmInt=Yes   AddAtPtLoad=Yes
   Frame=749013   StationType=MinNumSta   MinNumSta=3   AddAtElmInt=Yes   AddAtPtLoad=Yes
   Frame=749014   StationType=MinNumSta   MinNumSta=3   AddAtElmInt=Yes   AddAtPtLoad=Yes
   Frame=749015   StationType=MinNumSta   MinNumSta=3   AddAtElmInt=Yes   AddAtPtLoad=Yes
   Frame=749016   StationType=MinNumSta   MinNumSta=3   AddAtElmInt=Yes   AddAtPtLoad=Yes
   Frame=749017   StationType=MinNumSta   MinNumSta=3   AddAtElmInt=Yes   AddAtPtLoad=Yes
   Frame=749018   StationType=MinNumSta   MinNumSta=3   AddAtElmInt=Yes   AddAtPtLoad=Yes
   Frame=749019   StationType=MinNumSta   MinNumSta=3   AddAtElmInt=Yes   AddAtPtLoad=Yes
   Frame=749020   StationType=MinNumSta   MinNumSta=3   AddAtElmInt=Yes   AddAtPtLoad=Yes
   Frame=749021   StationType=MinNumSta   MinNumSta=3   AddAtElmInt=Yes   AddAtPtLoad=Yes
   Frame=749022   StationType=MinNumSta   MinNumSta=3   AddAtElmInt=Yes   AddAtPtLoad=Yes
   Frame=749023   StationType=MinNumSta   MinNumSta=3   AddAtElmInt=Yes   AddAtPtLoad=Yes
   Frame=749024   StationType=MinNumSta   MinNumSta=3   AddAtElmInt=Yes   AddAtPtLoad=Yes
   Frame=749025   StationType=MinNumSta   MinNumSta=3   AddAtElmInt=Yes   AddAtPtLoad=Yes
   Frame=749026   StationType=MinNumSta   MinNumSta=3   AddAtElmInt=Yes   AddAtPtLoad=Yes
   Frame=749027   StationType=MinNumSta   MinNumSta=3   AddAtElmInt=Yes   AddAtPtLoad=Yes
# ... 15 like lines cut
   Frame=749043   StationType=MaxStaSpcg   MaxStaSpcg=0.5   AddAtElmInt=Yes   AddAtPtLoad=Yes
   Frame=749044   StationType=MaxStaSpcg   MaxStaSpcg=0.5   AddAtElmInt=Yes   AddAtPtLoad=Yes
   Frame=749045   StationType=MaxStaSpcg   MaxStaSpcg=0.5   AddAtElmInt=Yes   AddAtPtLoad=Yes
   Frame=749046   StationType=MaxStaSpcg   MaxStaSpcg=0.5   AddAtElmInt=Yes   AddAtPtLoad=Yes
   Frame=749047   StationType=MaxStaSpcg   MaxStaSpcg=0.5   AddAtElmInt=Yes   AddAtPtLoad=Yes
   Frame=749048   StationType=MaxStaSpcg   MaxStaSpcg=0.5   AddAtElmInt=Yes   AddAtPtLoad=Yes
 
TABLE:  "FRAME SECTION ASSIGNMENTS"
   Frame=748971   AutoSelect=N.A.   AnalSect=TB   MatProp=Default
   Frame=748972   AutoSelect=N.A.   AnalSect=TB   MatProp=Default
   Frame=748973   AutoSelect=N.A.   AnalSect=TB   MatProp=Default
   Frame=748974   AutoSelect=N.A.   AnalSect=TB   MatProp=Default
   Frame=748975   AutoSelect=N.A.   AnalSect=TB   MatProp=Default
   Frame=748976   AutoSelect=N.A.   AnalSect=TB   MatProp=Default
   Frame=748977   AutoSelect=N.A.   AnalSect=TB   MatProp=Default
   Frame=748978   AutoSelect=N.A.   AnalSect=TB   MatProp=Default
   Frame=748979   AutoSelect=N.A.   AnalSect=TB   MatProp=Default
   Frame=748980   AutoSelect=N.A.   AnalSect=TB   MatProp=Default
   Frame=748981   AutoSelect=N.A.   AnalSect=TB   MatProp=Default
   Frame=748982   AutoSelect=N.A.   AnalSect=TB   MatProp=Default
   Frame=748983   AutoSelect=N.A.   AnalSect=TB   MatProp=Default
   Frame=748984   AutoSelect=N.A.   AnalSect=TB   MatProp=Default
   Frame=748985   AutoSelect=N.A.   AnalSect=TB   MatProp=Default
   Frame=748986   AutoSelect=N.A.   AnalSect=TB   MatProp=Default
   Frame=748987   AutoSelect=N.A.   AnalSect=TB   MatProp=Default
   Frame=748988   AutoSelect=N.A.   AnalSect=TB   MatProp=Default
   Frame=748989   AutoSelect=N.A.   AnalSect=TB   MatProp=Default
   Frame=748990   AutoSelect=N.A.   AnalSect=TB   MatProp=Default
   Frame=748991   AutoSelect=N.A.   AnalSect=TB   MatProp=Default
   Frame=748992   AutoSelect=N.A.   AnalSect=LB   MatProp=Default
   Frame=748993   AutoSelect=N.A.   AnalSect=LB   MatProp=Default
   Frame=748994   AutoSelect=N.A.   AnalSect=LB   MatProp=Default
   Frame=748995   AutoSelect=N.A.   AnalSect=LB   MatProp=Default
   Frame=748996   AutoSelect=N.A.   AnalSect=LB   MatProp=Default
   Frame=748997   AutoSelect=N.A.   AnalSect=LB   MatProp=Default
   Frame=748998   AutoSelect=N.A.   AnalSect=LB   MatProp=Default
   Frame=748999   AutoSelect=N.A.   AnalSect=LB   MatProp=Default
   Frame=749000   AutoSelect=N.A.   AnalSect=LB   MatProp=Default
   Frame=749001   AutoSelect=N.A.   AnalSect=LB   MatProp=Default
   Frame=749002   AutoSelect=N.A.   AnalSect=LB   MatProp=Default
   Frame=749003   AutoSelect=N.A.   AnalSect=LB   MatProp=Default
   Frame=749004   AutoSelect=N.A.   AnalSect=LB   MatProp=Default
   Frame=749005   AutoSelect=N.A.   AnalSect=LB   MatProp=Default
   Frame=749006   AutoSelect=N.A.   AnalSect=LB   MatProp=Default
   Frame=749007   AutoSelect=N.A.   AnalSect=LB   MatProp=Default
   Frame=749008   AutoSelect=N.A.   AnalSect=EB   MatProp=Default
   Frame=749009   AutoSelect=N.A.   AnalSect=Piles   MatProp=Default
   Frame=749010   AutoSelect=N.A.   AnalSect=Piles   MatProp=Default
   Frame=749011   AutoSelect=N.A.   AnalSect=EB   MatProp=Default
   Frame=749012   AutoSelect=N.A.   AnalSect=Piles   MatProp=Default
   Frame=749013   AutoSelect=N.A.   AnalSect=Piles   MatProp=Default
   Frame=749014   AutoSelect=N.A.   AnalSect=EB   MatProp=Default
   Frame=749015   AutoSelect=N.A.   AnalSect=Piles   MatProp=Default
   Frame=749016   AutoSelect=N.A.   AnalSect=Piles   MatProp=Default
   Frame=749017   AutoSelect=N.A.   AnalSect=EB   MatProp=Default
   Frame=749018   AutoSelect=N.A.   AnalSect=Piles   MatProp=Default
   Frame=749019   AutoSelect=N.A.   AnalSect=Piles   MatProp=Default
   Frame=749020   AutoSelect=N.A.   AnalSect=EB   MatProp=Default
   Frame=749021   AutoSelect=N.A.   AnalSect=Piles   MatProp=Default
   Frame=749022   AutoSelect=N.A.   AnalSect=Piles   MatProp=Default
   Frame=749023   AutoSelect=N.A.   AnalSect=EB   MatProp=Default
   Frame=749024   AutoSelect=N.A.   AnalSect=Piles   MatProp=Default
   Frame=749025   AutoSelect=N.A.   AnalSect=Piles   MatProp=Default
   Frame=749026   AutoSelect=N.A.   AnalSect=EB   MatProp=Default
   Frame=749027   AutoSelect=N.A.   AnalSect=Piles   MatProp=Default
   Frame=749028   AutoSelect=N.A.   AnalSect=Piles   MatProp=Default
   Frame=749029   AutoSelect=N.A.   AnalSect=Piles   MatProp=Default
   Frame=749030   AutoSelect=N.A.   AnalSect=Piles   MatProp=Default
   Frame=749031   AutoSelect=N.A.   AnalSect=Piles   MatProp=Default
   Frame=749032   AutoSelect=N.A.   AnalSect=Piles   MatProp=Default
   Frame=749033   AutoSelect=N.A.   AnalSect=Piles   MatProp=Default
   Frame=749034   AutoSelect=N.A.   AnalSect=Piles   MatProp=Default
   Frame=749035   AutoSelect=N.A.   AnalSect=Piles   MatProp=Default
   Frame=749036   AutoSelect=N.A.   AnalSect=Piles   MatProp=Default
   Frame=749037   AutoSelect=N.A.   AnalSect=Piles   MatProp=Default
   Frame=749038   AutoSelect=N.A.   AnalSect=Piles   MatProp=Default
   Frame=749039   AutoSelect=N.A.   AnalSect=Piles   MatProp=Default
   Frame=749040   AutoSelect=N.A.   AnalSect=Piles   MatProp=Default
   Frame=749041   AutoSelect=N.A.   AnalSect=Piles   MatProp=Default
   Frame=749042   AutoSelect=N.A.   AnalSect=Piles   MatProp=Default
   Frame=749043   AutoSelect=N.A.   AnalSect=EB-1   MatProp=Default
   Frame=749044   AutoSelect=N.A.   AnalSect=EB-1   MatProp=Default
   Frame=749045   AutoSelect=N.A.   AnalSect=EB-1   MatProp=Default
   Frame=749046   AutoSelect=N.A.   AnalSect=EB-1   MatProp=Default
   Frame=749047   AutoSelect=N.A.   AnalSect=EB-1   MatProp=Default
   Frame=749048   AutoSelect=N.A.   AnalSect=EB-1   MatProp=Default
 
TABLE:  "FRAME SECTION PROPERTIES 01 - GENERAL"
   SectionName=EB   Material=BTCT   Shape=Rectangular   t3=1.2   t2=0.5   Area=0.6   TorsConst=0.0369079665195795   I33=0.072   I22=0.0125   I23=0   AS2=0.5   AS3=0.5   S33Top=0.12   S33Bot=0.12   S22Left=0.05   S22Right=0.05   Z33=0.18 _
        Z22=0.075   R33=0.346410161513775   R22=0.144337567297406   CGOffset3=0   CGOffset2=0   EccV2=0   EccV3=0   Cw=0   Color=Gray8Dark   FromFile=No   AMod=1   A2Mod=1   A3Mod=1   JMod=1   I2Mod=1   I3Mod=1   MMod=1   WMod=1
   SectionName=EB-1   Material=BTCT   Shape=Rectangular   t3=0.5   t2=0.5   Area=0.25   TorsConst=0.00880208333333333   I33=0.00520833333333333   I22=0.00520833333333333   I23=0   AS2=0.208333333333333   AS3=0.208333333333333 _
        S33Top=0.0208333333333333   S33Bot=0.0208333333333333   S22Left=0.0208333333333333   S22Right=0.0208333333333333   Z33=0.03125   Z22=0.03125   R33=0.144337567297406   R22=0.144337567297406   CGOffset3=0   CGOffset2=0   EccV2=0 _
        EccV3=0   Cw=0   Color=Blue   FromFile=No   AMod=1   A2Mod=1   A3Mod=1   JMod=1   I2Mod=1   I3Mod=1   MMod=1   WMod=1
   SectionName=LB   Material=BTCT   Shape=Rectangular   t3=0.5   t2=0.5   Area=0.25   TorsConst=0.00880208333333333   I33=0.00520833333333333   I22=0.00520833333333333   I23=0   AS2=0.208333333333333   AS3=0.208333333333333 _
        S33Top=0.0208333333333333   S33Bot=0.0208333333333333   S22Left=0.0208333333333333   S22Right=0.0208333333333333   Z33=0.03125   Z22=0.03125   R33=0.144337567297406   R22=0.144337567297406   CGOffset3=0   CGOffset2=0   EccV2=0 _
        EccV3=0   Cw=0   Color=Yellow   FromFile=No   AMod=1   A2Mod=1   A3Mod=1   JMod=1   I2Mod=1   I3Mod=1   MMod=1   WMod=1
   SectionName=Piles   Material=BTCTCOC   Shape=Pipe   t3=0.3   tw=0.06   Area=0.045238934211693   TorsConst=0.000692155693438903   I33=0.000346077846719452   I22=0.000346077846719452   I23=0   AS2=0.0235427106611872 _
        AS3=0.0235427106611872   S33Top=0.00230718564479634   S33Bot=0.00230718564479634   S22Left=0.00230718564479634   S22Right=0.00230718564479634   Z33=0.003528   Z22=0.003528   R33=0.0874642784226795   R22=0.0874642784226795 _
        CGOffset3=0   CGOffset2=0   EccV2=0   EccV3=0   Cw=0   Color=Green   FromFile=No   AMod=1   A2Mod=1   A3Mod=1   JMod=1   I2Mod=1   I3Mod=1   MMod=1   WMod=1
   SectionName=TB   Material=BTCT   Shape=Rectangular   t3=0.5   t2=0.5   Area=0.25   TorsConst=0.00880208333333333   I33=0.00520833333333333   I22=0.00520833333333333   I23=0   AS2=0.208333333333333   AS3=0.208333333333333 _
        S33Top=0.0208333333333333   S33Bot=0.0208333333333333   S22Left=0.0208333333333333   S22Right=0.0208333333333333   Z33=0.03125   Z22=0.03125   R33=0.144337567297406   R22=0.144337567297406   CGOffset3=0   CGOffset2=0   EccV2=0 _
        EccV3=0   Cw=0   Color=Magenta   FromFile=No   AMod=1   A2Mod=1   A3Mod=1   JMod=1   I2Mod=1   I3Mod=1   MMod=1   WMod=1
 
TABLE:  "FRAME SECTION PROPERTIES 02 - CONCRETE COLUMN"
   SectionName=EB   RebarMatL=A706   RebarMatC=A706   ReinfConfig=Rectangular   LatReinf=Ties   Cover=0.05   NumBars3Dir=2   NumBars2Dir=2   BarSizeL=12d   BarSizeC=10d   SpacingC=0.1   NumCBars2=2   NumCBars3=2   ReinfType=Design
   SectionName=EB-1   RebarMatL=A706   RebarMatC=A706   ReinfConfig=Rectangular   LatReinf=Ties   Cover=0.05   NumBars3Dir=2   NumBars2Dir=2   BarSizeL=12d   BarSizeC=10d   SpacingC=0.1   NumCBars2=2   NumCBars3=2   ReinfType=Design
   SectionName=LB   RebarMatL=A706   RebarMatC=A706   ReinfConfig=Rectangular   LatReinf=Ties   Cover=0.05   NumBars3Dir=2   NumBars2Dir=2   BarSizeL=12d   BarSizeC=10d   SpacingC=0.1   NumCBars2=2   NumCBars3=2   ReinfType=Design
   SectionName=TB   RebarMatL=A706   RebarMatC=A706   ReinfConfig=Rectangular   LatReinf=Ties   Cover=0.05   NumBars3Dir=2   NumBars2Dir=2   BarSizeL=12d   BarSizeC=10d   SpacingC=0.1   NumCBars2=2   NumCBars3=2   ReinfType=Design
 
TABLE:  "FRAME SECTION PROPERTIES 13 - TIME DEPENDENT"
   SectionName=EB   TypeSize=Auto   AutoSFSize=1
   SectionName=EB-1   TypeSize=Auto   AutoSFSize=1
   SectionName=LB   TypeSize=Auto   AutoSFSize=1
   SectionName=Piles   TypeSize=Auto   AutoSFSize=1
   SectionName=TB   TypeSize=Auto   AutoSFSize=1
 
TABLE:  "FUNCTION - PLOT FUNCTIONS"
   PlotFunc="Input Energy"   Type=Energy   Component=Input   Mode=All
 
TABLE:  "FUNCTION - POWER SPECTRAL DENSITY - USER"
   Name=UNIFPSD   Frequency=0   Value=1
   Name=UNIFPSD   Frequency=1   Value=1
 
TABLE:  "FUNCTION - RESPONSE SPECTRUM - USER"
   Name=UNIFRS   Period=0   Accel=1   FuncDamp=0.05
   Name=UNIFRS   Period=1   Accel=1
 
TABLE:  "FUNCTION - STEADY STATE - USER"
   Name=UNIFSS   Frequency=0   Value=1
   Name=UNIFSS   Frequency=1   Value=1
 
TABLE:  "FUNCTION - TIME HISTORY - USER"
   Name=RAMPTH   Time=0   Value=0
   Name=RAMPTH   Time=1   Value=1
   Name=RAMPTH   Time=4   Value=1
   Name=UNIFTH   Time=0   Value=1
   Name=UNIFTH   Time=1   Value=1
 
TABLE:  "GRID LINES"
   CoordSys=GLOBAL   AxisDir=X   GridID=A   XRYZCoord=-10   LineType=Primary   LineColor=Gray8Dark   Visible=Yes   BubbleLoc=End   AllVisible=Yes   BubbleSize=0.9375
   CoordSys=GLOBAL   AxisDir=X   GridID=B   XRYZCoord=-9   LineType=Primary   LineColor=Gray8Dark   Visible=Yes   BubbleLoc=End
   CoordSys=GLOBAL   AxisDir=X   GridID=C   XRYZCoord=-4.5   LineType=Primary   LineColor=Gray8Dark   Visible=Yes   BubbleLoc=End
   CoordSys=GLOBAL   AxisDir=X   GridID=D   XRYZCoord=0   LineType=Primary   LineColor=Gray8Dark   Visible=Yes   BubbleLoc=End
   CoordSys=GLOBAL   AxisDir=X   GridID=E   XRYZCoord=4.5   LineType=Primary   LineColor=Gray8Dark   Visible=Yes   BubbleLoc=End
   CoordSys=GLOBAL   AxisDir=X   GridID=F   XRYZCoord=9   LineType=Primary   LineColor=Gray8Dark   Visible=Yes   BubbleLoc=End
   CoordSys=GLOBAL   AxisDir=X   GridID=G   XRYZCoord=10   LineType=Primary   LineColor=Gray8Dark   Visible=Yes   BubbleLoc=End
   CoordSys=GLOBAL   AxisDir=Y   GridID=1   XRYZCoord=-5.2   LineType=Primary   LineColor=Gray8Dark   Visible=Yes   BubbleLoc=Start
   CoordSys=GLOBAL   AxisDir=Y   GridID=2   XRYZCoord=-4.2   LineType=Primary   LineColor=Gray8Dark   Visible=Yes   BubbleLoc=Start
   CoordSys=GLOBAL   AxisDir=Y   GridID=3   XRYZCoord=0   LineType=Primary   LineColor=Gray8Dark   Visible=Yes   BubbleLoc=Start
   CoordSys=GLOBAL   AxisDir=Y   GridID=4   XRYZCoord=4.2   LineType=Primary   LineColor=Gray8Dark   Visible=Yes   BubbleLoc=Start
   CoordSys=GLOBAL   AxisDir=Y   GridID=5   XRYZCoord=4.8   LineType=Primary   LineColor=Gray8Dark   Visible=Yes   BubbleLoc=Start
   CoordSys=GLOBAL   AxisDir=Z   GridID=Z1   XRYZCoord=0   LineType=Primary   LineColor=Gray8Dark   Visible=Yes   BubbleLoc=End
   CoordSys=GLOBAL   AxisDir=Z   GridID=Z2   XRYZCoord=13   LineType=Primary   LineColor=Gray8Dark   Visible=Yes   BubbleLoc=End
 
TABLE:  "GROUPS 1 - DEFINITIONS"
   GroupName=ALL   Selection=Yes   SectionCut=Yes   Steel=Yes   Concrete=Yes   Aluminum=Yes   ColdFormed=Yes   Stage=Yes   Bridge=Yes   AutoSeismic=No   AutoWind=No   SelDesSteel=No   SelDesAlum=No   SelDesCold=No   MassWeight=Yes   Color=Red
   GroupName=Pile   Selection=Yes   SectionCut=Yes   Steel=Yes   Concrete=Yes   Aluminum=Yes   ColdFormed=Yes   Stage=Yes   Bridge=Yes   AutoSeismic=No   AutoWind=No   SelDesSteel=No   SelDesAlum=No   SelDesCold=No   MassWeight=Yes   Color=Gray8Dark
   GroupName=DN   Selection=Yes   SectionCut=Yes   Steel=Yes   Concrete=Yes   Aluminum=Yes   ColdFormed=Yes   Stage=Yes   Bridge=Yes   AutoSeismic=No   AutoWind=No   SelDesSteel=No   SelDesAlum=No   SelDesCold=No   MassWeight=Yes   Color=Yellow
   GroupName=Pile_Toe   Selection=Yes   SectionCut=Yes   Steel=Yes   Concrete=Yes   Aluminum=Yes   ColdFormed=Yes   Stage=Yes   Bridge=Yes   AutoSeismic=No   AutoWind=No   SelDesSteel=No   SelDesAlum=No   SelDesCold=No   MassWeight=Yes   Color=Green
   GroupName=Pile_Bend   Selection=Yes   SectionCut=Yes   Steel=Yes   Concrete=Yes   Aluminum=Yes   ColdFormed=Yes   Stage=Yes   Bridge=Yes   AutoSeismic=No   AutoWind=No   SelDesSteel=No   SelDesAlum=No   SelDesCold=No   MassWeight=Yes   Color=Cyan
   GroupName=Beam   Selection=Yes   SectionCut=Yes   Steel=Yes   Concrete=Yes   Aluminum=Yes   ColdFormed=Yes   Stage=Yes   Bridge=Yes   AutoSeismic=No   AutoWind=No   SelDesSteel=No   SelDesAlum=No   SelDesCold=No   MassWeight=Yes   Color=Blue
   GroupName=Piles   Selection=Yes   SectionCut=Yes   Steel=Yes   Concrete=Yes   Aluminum=Yes   ColdFormed=Yes   Stage=Yes   Bridge=Yes   AutoSeismic=No   AutoWind=No   SelDesSteel=No   SelDesAlum=No   SelDesCold=No   MassWeight=Yes   Color=Magenta
   GroupName=Beams   Selection=Yes   SectionCut=Yes   Steel=Yes   Concrete=Yes   Aluminum=Yes   ColdFormed=Yes   Stage=Yes   Bridge=Yes   AutoSeismic=No   AutoWind=No   SelDesSteel=No   SelDesAlum=No   SelDesCold=No   MassWeight=Yes   Color=Yellow
 
TABLE:  "GROUPS 2 - ASSIGNMENTS"
 
TABLE:  "JOINT COORDINATES"
   Joint=668497   CoordSys=GLOBAL   CoordType=Cartesian   XorR=-9   Y=-5   Z=0   SpecialJt=No   GUID=7ed8b7ee-7b41-4fa2-b534-cbfa7eb7f2c4
   Joint=668498   CoordSys=GLOBAL   CoordType=Cartesian   XorR=-9   Y=-2.8   Z=0   SpecialJt=No   GUID=8f1f82d4-e1b0-4d1f-9f13-85fdd86338f5
   Joint=668499   CoordSys=GLOBAL   CoordType=Cartesian   XorR=-6   Y=-5   Z=0   SpecialJt=No   GUID=ee22da91-33a6-4d58-b31f-fba013e6fd73
   Joint=668500   CoordSys=GLOBAL   CoordType=Cartesian   XorR=-6   Y=-2.8   Z=0   SpecialJt=No   GUID=76be5bb0-791a-4458-9231-7385711f05e8
   Joint=668501   CoordSys=GLOBAL   CoordType=Cartesian   XorR=-3   Y=-5   Z=0   SpecialJt=No   GUID=a875383c-ffe3-4697-84a7-7f225ace9435
   Joint=668502   CoordSys=GLOBAL   CoordType=Cartesian   XorR=-3   Y=-2.8   Z=0   SpecialJt=No   GUID=7ca4a2c6-dbb5-457c-901e-c51774fea2e0
   Joint=668503   CoordSys=GLOBAL   CoordType=Cartesian   XorR=0   Y=-5   Z=0   SpecialJt=No   GUID=79bfea9e-301d-4b31-abc5-70d519efb1c5
   Joint=668504   CoordSys=GLOBAL   CoordType=Cartesian   XorR=0   Y=-2.8   Z=0   SpecialJt=No   GUID=b6a223c5-8a22-4475-be98-2ed28a1147ed
   Joint=668505   CoordSys=GLOBAL   CoordType=Cartesian   XorR=3   Y=-5   Z=0   SpecialJt=No   GUID=3aa0e8b7-735b-4670-a1f4-72ba3a797be5
   Joint=668506   CoordSys=GLOBAL   CoordType=Cartesian   XorR=3   Y=-2.8   Z=0   SpecialJt=No   GUID=25d3a746-33de-441f-8658-4ad3e6bead41
   Joint=668507   CoordSys=GLOBAL   CoordType=Cartesian   XorR=6   Y=-5   Z=0   SpecialJt=No   GUID=32ffadbe-0120-418d-9a51-db3de9e25ac7
   Joint=668508   CoordSys=GLOBAL   CoordType=Cartesian   XorR=6   Y=-2.8   Z=0   SpecialJt=No   GUID=1abd935c-8a1d-47e2-85cf-db92daeb56d3
   Joint=668509   CoordSys=GLOBAL   CoordType=Cartesian   XorR=9   Y=-5   Z=0   SpecialJt=No   GUID=147092d0-75c7-4465-9654-79b97fc5791d
   Joint=668510   CoordSys=GLOBAL   CoordType=Cartesian   XorR=9   Y=-2.8   Z=0   SpecialJt=No   GUID=2a5757cb-ec2a-4dd9-a3d2-227783732955
   Joint=668511   CoordSys=GLOBAL   CoordType=Cartesian   XorR=-9   Y=2.8   Z=0   SpecialJt=No   GUID=29daf2b9-005d-4e1e-a47c-7ededc091d16
   Joint=668512   CoordSys=GLOBAL   CoordType=Cartesian   XorR=-6   Y=2.8   Z=0   SpecialJt=No   GUID=93a1f905-b9f6-4cb7-b1cb-e1b899bda968
   Joint=668513   CoordSys=GLOBAL   CoordType=Cartesian   XorR=-3   Y=2.8   Z=0   SpecialJt=No   GUID=72801dda-f259-41a5-bc03-61900cdc3e79
   Joint=668514   CoordSys=GLOBAL   CoordType=Cartesian   XorR=0   Y=2.8   Z=0   SpecialJt=No   GUID=53e240ce-52e5-4f79-923f-ce1a8b81ab3d
   Joint=668515   CoordSys=GLOBAL   CoordType=Cartesian   XorR=3   Y=2.8   Z=0   SpecialJt=No   GUID=a02d5f9b-aff2-4509-8176-f48b64ae009d
   Joint=668516   CoordSys=GLOBAL   CoordType=Cartesian   XorR=6   Y=2.8   Z=0   SpecialJt=No   GUID=2f02eb5b-c3a9-4376-b85e-1d4b0aec90e1
   Joint=668517   CoordSys=GLOBAL   CoordType=Cartesian   XorR=9   Y=2.8   Z=0   SpecialJt=No   GUID=65a552eb-65fb-4970-a093-b0eb393b7fa5
   Joint=668518   CoordSys=GLOBAL   CoordType=Cartesian   XorR=-9   Y=5   Z=0   SpecialJt=No   GUID=3ee78059-529c-427a-8254-f19a4043b690
   Joint=668519   CoordSys=GLOBAL   CoordType=Cartesian   XorR=-6   Y=5   Z=0   SpecialJt=No   GUID=c9d4baf2-882f-42a5-8c3f-5bfd7601925e
   Joint=668520   CoordSys=GLOBAL   CoordType=Cartesian   XorR=-3   Y=5   Z=0   SpecialJt=No   GUID=a26dc4d4-331c-44ac-ba7d-b74705ee2608
   Joint=668521   CoordSys=GLOBAL   CoordType=Cartesian   XorR=0   Y=5   Z=0   SpecialJt=No   GUID=e9127969-5129-4618-98c3-8bb9dbeb3807
   Joint=668522   CoordSys=GLOBAL   CoordType=Cartesian   XorR=3   Y=5   Z=0   SpecialJt=No   GUID=3d57af59-8527-44b2-83a0-e42984cf1fa4
   Joint=668523   CoordSys=GLOBAL   CoordType=Cartesian   XorR=6   Y=5   Z=0   SpecialJt=No   GUID=c24eca7e-9daa-49ae-a134-4d748f8a350f
   Joint=668524   CoordSys=GLOBAL   CoordType=Cartesian   XorR=9   Y=5   Z=0   SpecialJt=No   GUID=5947de09-8591-431f-84b0-05d95724a70e
   Joint=668525   CoordSys=GLOBAL   CoordType=Cartesian   XorR=-10   Y=-2.8   Z=0   SpecialJt=No   GUID=95c8df10-293d-47af-88bd-28ea3ba65fd4
   Joint=668526   CoordSys=GLOBAL   CoordType=Cartesian   XorR=-10   Y=2.8   Z=0   SpecialJt=No   GUID=f62a32e7-ff42-4f97-91a6-602cf74c6b0e
   Joint=668527   CoordSys=GLOBAL   CoordType=Cartesian   XorR=10   Y=-2.8   Z=0   SpecialJt=No   GUID=be52cae3-5af0-4193-a7d6-89e594765d1c
   Joint=668528   CoordSys=GLOBAL   CoordType=Cartesian   XorR=10   Y=2.8   Z=0   SpecialJt=No   GUID=e99b0c3d-21ce-4592-a918-5fbab8590308
   Joint=668529   CoordSys=GLOBAL   CoordType=Cartesian   XorR=-9   Y=-2.8   Z=-3   SpecialJt=No   GUID=d048d4ba-47d1-4455-bfba-47465961430e
   Joint=668530   CoordSys=GLOBAL   CoordType=Cartesian   XorR=-9   Y=-2.8   Z=-13.4180229476075   SpecialJt=No   GUID=35d3b30d-4e36-4a4c-9c2e-7a5026b48fdd
   Joint=668531   CoordSys=GLOBAL   CoordType=Cartesian   XorR=-9   Y=-2.8   Z=-37.7   SpecialJt=No   GUID=514ff574-cb8c-42bd-bd1e-76db47271d28
   Joint=668532   CoordSys=GLOBAL   CoordType=Cartesian   XorR=-6   Y=-2.8   Z=-3   SpecialJt=No   GUID=a51e51dd-0859-47f3-8081-6ec832f5b201
   Joint=668533   CoordSys=GLOBAL   CoordType=Cartesian   XorR=-6   Y=-2.8   Z=-13.4180229476075   SpecialJt=No   GUID=defd7c6d-3446-4aae-80fd-9e58616bfe7f
   Joint=668534   CoordSys=GLOBAL   CoordType=Cartesian   XorR=-6   Y=-2.8   Z=-37.7   SpecialJt=No   GUID=2d1f9121-1120-4105-ad03-5bbd27d518c4
   Joint=668535   CoordSys=GLOBAL   CoordType=Cartesian   XorR=-3   Y=-2.8   Z=-3   SpecialJt=No   GUID=ba4d4605-f00b-43d1-8f9a-09bac81a1808
   Joint=668536   CoordSys=GLOBAL   CoordType=Cartesian   XorR=-3   Y=-2.8   Z=-13.4180229476075   SpecialJt=No   GUID=c77dbde0-b05e-4b67-bf4f-b23876eee49a
   Joint=668537   CoordSys=GLOBAL   CoordType=Cartesian   XorR=-3   Y=-2.8   Z=-37.7   SpecialJt=No   GUID=cdbf152b-2eb3-4a9c-8d89-81657fd803e7
   Joint=668538   CoordSys=GLOBAL   CoordType=Cartesian   XorR=0   Y=-2.8   Z=-3   SpecialJt=No   GUID=8e208bfe-5358-4be0-9f71-dcb562ffdc5c
   Joint=668539   CoordSys=GLOBAL   CoordType=Cartesian   XorR=0   Y=-2.8   Z=-13.4180229476075   SpecialJt=No   GUID=fbd93e2a-5215-4204-ac04-fba28db062aa
   Joint=668540   CoordSys=GLOBAL   CoordType=Cartesian   XorR=0   Y=-2.8   Z=-37.7   SpecialJt=No   GUID=ef0e866b-83cb-4964-becc-7122c5fdf528
   Joint=668541   CoordSys=GLOBAL   CoordType=Cartesian   XorR=3   Y=-2.8   Z=-3   SpecialJt=No   GUID=e1a3a176-f3ca-4f47-b2d3-36757e5df24a
   Joint=668542   CoordSys=GLOBAL   CoordType=Cartesian   XorR=3   Y=-2.8   Z=-13.4180229476075   SpecialJt=No   GUID=92ec4265-3b8b-43e6-99e7-7c009b6c205e
   Joint=668543   CoordSys=GLOBAL   CoordType=Cartesian   XorR=3   Y=-2.8   Z=-37.7   SpecialJt=No   GUID=8430db4d-e1d6-43ec-a0a2-4fa9cc621da1
   Joint=668544   CoordSys=GLOBAL   CoordType=Cartesian   XorR=6   Y=-2.8   Z=-3   SpecialJt=No   GUID=5745e339-389c-4758-b0cc-1be4da1aba6a
   Joint=668545   CoordSys=GLOBAL   CoordType=Cartesian   XorR=6   Y=-2.8   Z=-13.4180229476075   SpecialJt=No   GUID=f00ced04-fe79-4570-933a-3c06eebc4697
   Joint=668546   CoordSys=GLOBAL   CoordType=Cartesian   XorR=6   Y=-2.8   Z=-37.7   SpecialJt=No   GUID=6cd5cf4e-2ae8-4f1d-9c91-2ce1227586f1
   Joint=668547   CoordSys=GLOBAL   CoordType=Cartesian   XorR=9   Y=-2.8   Z=-3   SpecialJt=No   GUID=1acadae6-2cad-4bd9-9bce-4d18690c24e4
   Joint=668548   CoordSys=GLOBAL   CoordType=Cartesian   XorR=9   Y=-2.8   Z=-13.4180229476075   SpecialJt=No   GUID=6800c118-5b54-4157-bbff-8b125b0637a2
   Joint=668549   CoordSys=GLOBAL   CoordType=Cartesian   XorR=9   Y=-2.8   Z=-37.7   SpecialJt=No   GUID=7d25c937-ac98-4773-b711-d991a8687fe5
   Joint=668550   CoordSys=GLOBAL   CoordType=Cartesian   XorR=-9   Y=2.8   Z=-13.4180229476075   SpecialJt=No   GUID=dbf1160f-839e-4d22-9949-a3063a837ba0
   Joint=668551   CoordSys=GLOBAL   CoordType=Cartesian   XorR=-9   Y=2.8   Z=-37.7   SpecialJt=No   GUID=1161835c-ed5c-441b-aa54-d2e9584fab8a
   Joint=668552   CoordSys=GLOBAL   CoordType=Cartesian   XorR=-6   Y=2.8   Z=-13.4180229476075   SpecialJt=No   GUID=d56d68bb-bf9b-4834-8742-313614e867ad
   Joint=668553   CoordSys=GLOBAL   CoordType=Cartesian   XorR=-6   Y=2.8   Z=-37.7   SpecialJt=No   GUID=683ede08-c979-4e65-a81d-7f5bc9db8cd5
   Joint=668554   CoordSys=GLOBAL   CoordType=Cartesian   XorR=-3   Y=2.8   Z=-13.4180229476075   SpecialJt=No   GUID=52396df6-ccbe-426d-98fc-81dbb28c5f47
   Joint=668555   CoordSys=GLOBAL   CoordType=Cartesian   XorR=-3   Y=2.8   Z=-37.7   SpecialJt=No   GUID=43666106-b23e-4ddd-94eb-34554302e476
   Joint=668556   CoordSys=GLOBAL   CoordType=Cartesian   XorR=0   Y=2.8   Z=-13.4180229476075   SpecialJt=No   GUID=a396f96a-4c16-4645-b17c-7c163ff431b7
   Joint=668557   CoordSys=GLOBAL   CoordType=Cartesian   XorR=0   Y=2.8   Z=-37.7   SpecialJt=No   GUID=44ebfbab-ceb0-4030-87a5-d072d69dbeef
   Joint=668558   CoordSys=GLOBAL   CoordType=Cartesian   XorR=3   Y=2.8   Z=-13.4180229476075   SpecialJt=No   GUID=2dea1313-d315-4581-8c28-fb5e7808259d
   Joint=668559   CoordSys=GLOBAL   CoordType=Cartesian   XorR=3   Y=2.8   Z=-37.7   SpecialJt=No   GUID=db66e750-5a6c-4850-bf82-25dd640c19f4
   Joint=668560   CoordSys=GLOBAL   CoordType=Cartesian   XorR=6   Y=2.8   Z=-13.4180229476075   SpecialJt=No   GUID=1c1a7740-b936-411d-aafe-6709727c43c3
   Joint=668561   CoordSys=GLOBAL   CoordType=Cartesian   XorR=6   Y=2.8   Z=-37.7   SpecialJt=No   GUID=cad8fb63-1763-4b76-be16-b0790cf75ec1
   Joint=668562   CoordSys=GLOBAL   CoordType=Cartesian   XorR=9   Y=2.8   Z=-13.4180229476075   SpecialJt=No   GUID=7935af8b-b462-450a-baef-0c079b7c044e
   Joint=668563   CoordSys=GLOBAL   CoordType=Cartesian   XorR=9   Y=2.8   Z=-37.7   SpecialJt=No   GUID=f2a23851-dcb6-448f-a0b9-7b5dcaa2ca52
   Joint=668564   CoordSys=GLOBAL   CoordType=Cartesian   XorR=-10   Y=-5   Z=0   SpecialJt=No   GUID=74c7af4c-161b-4867-bd4d-98e1fae2270b
   Joint=668565   CoordSys=GLOBAL   CoordType=Cartesian   XorR=10   Y=-5   Z=0   SpecialJt=No   GUID=849bb6dd-3d82-4a91-a34d-dcc02a2817ea
   Joint=668566   CoordSys=GLOBAL   CoordType=Cartesian   XorR=-10   Y=5   Z=0   SpecialJt=No   GUID=8205d4fb-786c-46cd-b68c-94c2269d7fe0
   Joint=668567   CoordSys=GLOBAL   CoordType=Cartesian   XorR=10   Y=5   Z=0   SpecialJt=No   GUID=4eef35a6-8c9d-44c6-a4ec-f2b821289cea
 
TABLE:  "JOINT PATTERN DEFINITIONS"
   Pattern=Default
 
TABLE:  "JOINT RESTRAINT ASSIGNMENTS"
   Joint=668530   U1=Yes   U2=Yes   U3=No   R1=Yes   R2=Yes   R3=Yes
   Joint=668531   U1=No   U2=No   U3=Yes   R1=No   R2=No   R3=No
   Joint=668533   U1=Yes   U2=Yes   U3=No   R1=Yes   R2=Yes   R3=Yes
   Joint=668534   U1=No   U2=No   U3=Yes   R1=No   R2=No   R3=No
   Joint=668536   U1=Yes   U2=Yes   U3=No   R1=Yes   R2=Yes   R3=Yes
   Joint=668537   U1=No   U2=No   U3=Yes   R1=No   R2=No   R3=No
   Joint=668539   U1=Yes   U2=Yes   U3=No   R1=Yes   R2=Yes   R3=Yes
   Joint=668540   U1=No   U2=No   U3=Yes   R1=No   R2=No   R3=No
   Joint=668542   U1=Yes   U2=Yes   U3=No   R1=Yes   R2=Yes   R3=Yes
   Joint=668543   U1=No   U2=No   U3=Yes   R1=No   R2=No   R3=No
   Joint=668545   U1=Yes   U2=Yes   U3=No   R1=Yes   R2=Yes   R3=Yes
   Joint=668546   U1=No   U2=No   U3=Yes   R1=No   R2=No   R3=No
   Joint=668548   U1=Yes   U2=Yes   U3=No   R1=Yes   R2=Yes   R3=Yes
   Joint=668549   U1=No   U2=No   U3=Yes   R1=No   R2=No   R3=No
   Joint=668550   U1=Yes   U2=Yes   U3=No   R1=Yes   R2=Yes   R3=Yes
   Joint=668551   U1=No   U2=No   U3=Yes   R1=No   R2=No   R3=No
   Joint=668552   U1=Yes   U2=Yes   U3=No   R1=Yes   R2=Yes   R3=Yes
   Joint=668553   U1=No   U2=No   U3=Yes   R1=No   R2=No   R3=No
   Joint=668554   U1=Yes   U2=Yes   U3=No   R1=Yes   R2=Yes   R3=Yes
   Joint=668555   U1=No   U2=No   U3=Yes   R1=No   R2=No   R3=No
   Joint=668556   U1=Yes   U2=Yes   U3=No   R1=Yes   R2=Yes   R3=Yes
   Joint=668557   U1=No   U2=No   U3=Yes   R1=No   R2=No   R3=No
   Joint=668558   U1=Yes   U2=Yes   U3=No   R1=Yes   R2=Yes   R3=Yes
   Joint=668559   U1=No   U2=No   U3=Yes   R1=No   R2=No   R3=No
   Joint=668560   U1=Yes   U2=Yes   U3=No   R1=Yes   R2=Yes   R3=Yes
   Joint=668561   U1=No   U2=No   U3=Yes   R1=No   R2=No   R3=No
   Joint=668562   U1=Yes   U2=Yes   U3=No   R1=Yes   R2=Yes   R3=Yes
   Joint=668563   U1=No   U2=No   U3=Yes   R1=No   R2=No   R3=No
 
TABLE:  "LOAD CASE DEFINITIONS"
   Case=DEAD   Type=LinStatic   InitialCond=Zero   DesTypeOpt="Prog Det"   DesignType=Dead   DesActOpt="Prog Det"   DesignAct=Non-Composite   AutoType=None   RunCase=Yes
   Case=MODAL   Type=LinModal   InitialCond=Zero   DesTypeOpt="Prog Det"   DesignType=Other   DesActOpt="Prog Det"   DesignAct=Other   AutoType=None   RunCase=Yes
   Case=LL   Type=LinStatic   InitialCond=Zero   DesTypeOpt="Prog Det"   DesignType=Live   DesActOpt="Prog Det"   DesignAct="Short-Term Composite"   AutoType=None   RunCase=Yes
 
TABLE:  "LOAD PATTERN DEFINITIONS"
   LoadPat=DEAD   DesignType=Dead   SelfWtMult=1
   LoadPat=LL   DesignType=Live   SelfWtMult=0
 
TABLE:  "MASS SOURCE"
   MassSource=MSSSRC1   Elements=Yes   Masses=Yes   Loads=No   IsDefault=Yes
 
TABLE:  "MATERIAL PROPERTIES 01 - GENERAL"
   Material=A706   Type=Rebar   SymType=Uniaxial   TempDepend=No   Color=Gray8Dark   GUID=30185aab-1311-4f4b-9ffe-ddad707d22d9   Notes="ASTM A706 added 8/23/2025 4:27:57 PM"
   Material=BTCT   Type=Concrete   SymType=Isotropic   TempDepend=No   Color=Blue   Notes="Concrete added 24-Feb-23 16:30:01"
   Material=BTCTCOC   Type=Concrete   SymType=Isotropic   TempDepend=No   Color=Blue   Notes="Concrete added 24-Feb-23 16:30:01"
   Material=Steel   Type=Steel   SymType=Isotropic   TempDepend=No   Color=Magenta   GUID=2f952889-4898-4964-97a4-5fb5c5008d33   Notes="Steel added 8/24/2025 2:51:43 PM"
   Material=Tendon   Type=Tendon   SymType=Uniaxial   TempDepend=No   Color=Yellow   GUID=7dfcd093-823e-4b3a-b96f-35d5bcaf456f   Notes="Tendon added 8/24/2025 2:51:43 PM"
 
TABLE:  "MATERIAL PROPERTIES 02 - BASIC MECHANICAL PROPERTIES"
   Material=A706   UnitWeight=7.84904757236607   UnitMass=0.800380070686609   E1=20389019.1580383   A1=1.16999994421006E-05
   Material=BTCT   UnitWeight=2.40276966501002   UnitMass=0.245014307353044   E1=2900000   G12=1208333.33333333   U12=0.2   A1=9.9E-06
   Material=BTCTCOC   UnitWeight=2.40276966501002   UnitMass=0.245014307353044   E1=3800000000   G12=1583333333.33333   U12=0.2   A1=9.9E-06
   Material=Steel   UnitWeight=7.84904757236607   UnitMass=0.800380070686609   E1=20389019.1580383   G12=7841930.44539935   U12=0.3   A1=1.17E-05
   Material=Tendon   UnitWeight=7.84904757236607   UnitMass=0.800380070686609   E1=20037484.3449687   A1=1.16999994421006E-05
 
TABLE:  "MATERIAL PROPERTIES 03A - STEEL DATA"
   Material=Steel   Fy=35153.4813069626   Fu=45699.5256990514   EffFy=38668.8294376589   EffFu=50269.4782689565   SSCurveOpt=Simple   SSHysType=Kinematic   SHard=0.015   SMax=0.11   SRup=0.17   FinalSlope=-0.1   CoupModType="Von Mises"
 
TABLE:  "MATERIAL PROPERTIES 03B - CONCRETE DATA"
   Material=BTCT   Fc=2812.27850455701   eFc=2812.27850455701   LtWtConc=No   SSCurveOpt=Mander   SSHysType=Takeda   SFc=0.002   SCap=0.005   FinalSlope=-0.1   FAngle=0   DAngle=0   CoupModType="Modified Darwin-Pecknold"
   Material=BTCTCOC   Fc=2812.27850455701   eFc=2812.27850455701   LtWtConc=No   SSCurveOpt=Mander   SSHysType=Takeda   SFc=0.002   SCap=0.005   FinalSlope=-0.1   FAngle=0   DAngle=0   CoupModType="Modified Darwin-Pecknold"
 
TABLE:  "MATERIAL PROPERTIES 03E - REBAR DATA"
   Material=A706   Fy=42184.1775683551   Fu=56245.5700911402   EffFy=46402.5953251907   EffFu=61870.1271002542   SSCurveOpt=Simple   SSHysType=Kinematic   SHard=0.011   SCap=0.11   FinalSlope=-0.1   UseCTDef=No   CoupModType="Von Mises"
 
TABLE:  "MATERIAL PROPERTIES 03F - TENDON DATA"
   Material=Tendon   Fy=172322.365366731   Fu=189828.799057598   SSCurveOpt="270 ksi"   SSHysType=Kinematic   FinalSlope=-0.1   CoupModType="Von Mises"
 
TABLE:  "MATERIAL PROPERTIES 03J - COUPLED NONLINEAR VON MISES DATA"
   Material=A706   YieldStress=46402.5953251907   LinIsoHard=No   LinKinHard=No   NLIsoSaHard=No
   Material=Steel   YieldStress=38668.8294376589   LinIsoHard=No   LinKinHard=No   NLIsoSaHard=No
   Material=Tendon   YieldStress=172322.365366731   LinIsoHard=No   LinKinHard=No   NLIsoSaHard=No
 
TABLE:  "MATERIAL PROPERTIES 06 - DAMPING PARAMETERS"
   Material=A706   ModalRatio=0   VisMass=0   VisStiff=0   HysMass=0   HysStiff=0
   Material=BTCT   ModalRatio=0   VisMass=0   VisStiff=0   HysMass=0   HysStiff=0
   Material=BTCTCOC   ModalRatio=0   VisMass=0   VisStiff=0   HysMass=0   HysStiff=0
   Material=Steel   ModalRatio=0   VisMass=0   VisStiff=0   HysMass=0   HysStiff=0
   Material=Tendon   ModalRatio=0   VisMass=0   VisStiff=0   HysMass=0   HysStiff=0
 
TABLE:  "MATERIAL PROPERTIES 09 - ACCEPTANCE CRITERIA"
   Material=A706   IOTens=0.01   LSTens=0.02   CPTens=0.05   IOComp=-0.005   LSComp=-0.01   CPComp=-0.02
   Material=BTCT   IOTens=0.01   LSTens=0.02   CPTens=0.05   IOComp=-0.003   LSComp=-0.006   CPComp=-0.015   IgnoreTens=Yes
   Material=BTCTCOC   IOTens=0.01   LSTens=0.02   CPTens=0.05   IOComp=-0.003   LSComp=-0.006   CPComp=-0.015   IgnoreTens=Yes
   Material=Steel   IOTens=0.01   LSTens=0.02   CPTens=0.05   IOComp=-0.005   LSComp=-0.01   CPComp=-0.02
   Material=Tendon   IOTens=0.015   LSTens=0.023   CPTens=0.03   IOComp=-0.015   LSComp=-0.023   CPComp=-0.03
 
TABLE:  "OPTIONS - COLORS - DISPLAY"
   DeviceType=Screen   Points=Blue   LinesFrame=Blue   LinesFrmDL=Blue   LinesCable=Green   LinesTendon=Green   SpringLinks=Green   Restraints=Green   Releases=Green   Axes=Cyan   Text=Black   ShadowLines=Gray8Dark   GuideLines=Gray8Dark _
        Highlight=Red   Selection=10504778   AreaFillBot=Red   AreaFillTop=16744703   AreaFillSd=Red   AreaEdge=DarkRed   SolidF1=Red   SolidF2=Blue   SolidF3=Green   SolidF4=Yellow   SolidF5=White   SolidF6=Cyan   SolidEdge=DarkRed _
        Floor=Gray4   Background=White   BGLowLeft=White   BGLowRight=White   BGUpRight=White   Darkness=0.5
   DeviceType=Printer   Points=Gray8Dark   LinesFrame=Black   LinesFrmDL=Gray4   LinesCable=Black   LinesTendon=Black   SpringLinks=Gray8Dark   Restraints=Gray8Dark   Releases=Gray4   Axes=Black   Text=Black   ShadowLines=Gray4 _
        GuideLines=Gray4   Highlight=Black   Selection=Black   AreaFillBot=Gray4   AreaFillTop=Gray8Dark   AreaFillSd=Gray4   AreaEdge=Black   SolidF1=Gray1Light   SolidF2=Gray2   SolidF3=Gray3   SolidF4=Gray4   SolidF5=Gray5 _
        SolidF6=Gray6   SolidEdge=Black   Floor=Gray4   Background=White   BGLowLeft=White   BGLowRight=White   BGUpRight=White   Darkness=0.5
   DeviceType="Color Printer"   Points=Blue   LinesFrame=Blue   LinesFrmDL=Blue   LinesCable=Green   LinesTendon=Green   SpringLinks=Green   Restraints=Green   Releases=Green   Axes=Cyan   Text=Black   ShadowLines=Gray8Dark _
        GuideLines=Gray8Dark   Highlight=Red   Selection=10504778   AreaFillBot=Red   AreaFillTop=16744703   AreaFillSd=Red   AreaEdge=DarkRed   SolidF1=Red   SolidF2=Blue   SolidF3=Green   SolidF4=Yellow   SolidF5=White   SolidF6=Cyan _
        SolidEdge=DarkRed   Floor=Gray4   Background=White   BGLowLeft=White   BGLowRight=White   BGUpRight=White   Darkness=0.5
 
TABLE:  "OPTIONS - COLORS - OUTPUT"
   DeviceType=Screen   Contour1=13107400   Contour2=6553828   Contour3=Red   Contour4=16639   Contour5=Orange   Contour6=43775   Contour7=54527   Contour8=Yellow   Contour9=65408   Contour10=Green   Contour11=8453888   Contour12=Cyan _
        Contour13=16755200   Contour14=16733440   Contour15=Blue   Transpare=0.5   Ratio1=Cyan   Ratio2=Green   Ratio3=Yellow   Ratio4=Orange   Ratio5=Red   RatioNotD=Gray4   RatioNotC=Red   RatioVal1=0.5   RatioVal2=0.7   RatioVal3=0.9 _
        RatioVal4=1   DFillPos=Blue   DFillNeg=Red   DFillRPos=Green   DFillRNeg=Green
   DeviceType=Printer   Contour1=Black   Contour2=3158064   Contour3=4210752   Contour4=5263440   Contour5=6316128   Contour6=7368816   Contour7=Gray8Dark   Contour8=Gray7   Contour9=Gray6   Contour10=Gray5   Contour11=Gray4 _
        Contour12=Gray3   Contour13=Gray2   Contour14=Gray1Light   Contour15=White   Transpare=0   Ratio1=Gray2   Ratio2=Gray4   Ratio3=Gray8Dark   Ratio4=4210752   Ratio5=Black   RatioNotD=Gray4   RatioNotC=Black   RatioVal1=0.5 _
        RatioVal2=0.7   RatioVal3=0.9   RatioVal4=1   DFillPos=Gray8Dark   DFillNeg=Gray8Dark   DFillRPos=4210752   DFillRNeg=4210752
   DeviceType="Color Printer"   Contour1=13107400   Contour2=6553828   Contour3=Red   Contour4=16639   Contour5=Orange   Contour6=43775   Contour7=54527   Contour8=Yellow   Contour9=65408   Contour10=Green   Contour11=8453888 _
        Contour12=Cyan   Contour13=16755200   Contour14=16733440   Contour15=Blue   Transpare=0   Ratio1=Cyan   Ratio2=Green   Ratio3=Yellow   Ratio4=Orange   Ratio5=Red   RatioNotD=Gray4   RatioNotC=Red   RatioVal1=0.5   RatioVal2=0.7 _
        RatioVal3=0.9   RatioVal4=1   DFillPos=Blue   DFillNeg=Red   DFillRPos=Green   DFillRNeg=Green
 
TABLE:  "OVERWRITES - CONCRETE DESIGN - CSA-A233-14"
   Frame=748971   DesignSect="Program Determined"   FrameType="Program Determined"   RLLF=0   XLMajor=0   XLMinor=0   XKMajor=0   XKMinor=0   CmMajor=0   CmMinor=0   DbMajor=0   DbMinor=0   DsMajor=0   DsMinor=0   Rd=0   Ro=0   MaxAggSize=0
   Frame=748972   DesignSect="Program Determined"   FrameType="Program Determined"   RLLF=0   XLMajor=0   XLMinor=0   XKMajor=0   XKMinor=0   CmMajor=0   CmMinor=0   DbMajor=0   DbMinor=0   DsMajor=0   DsMinor=0   Rd=0   Ro=0   MaxAggSize=0
   Frame=748973   DesignSect="Program Determined"   FrameType="Program Determined"   RLLF=0   XLMajor=0   XLMinor=0   XKMajor=0   XKMinor=0   CmMajor=0   CmMinor=0   DbMajor=0   DbMinor=0   DsMajor=0   DsMinor=0   Rd=0   Ro=0   MaxAggSize=0
   Frame=748974   DesignSect="Program Determined"   FrameType="Program Determined"   RLLF=0   XLMajor=0   XLMinor=0   XKMajor=0   XKMinor=0   CmMajor=0   CmMinor=0   DbMajor=0   DbMinor=0   DsMajor=0   DsMinor=0   Rd=0   Ro=0   MaxAggSize=0
   Frame=748975   DesignSect="Program Determined"   FrameType="Program Determined"   RLLF=0   XLMajor=0   XLMinor=0   XKMajor=0   XKMinor=0   CmMajor=0   CmMinor=0   DbMajor=0   DbMinor=0   DsMajor=0   DsMinor=0   Rd=0   Ro=0   MaxAggSize=0
   Frame=748976   DesignSect="Program Determined"   FrameType="Program Determined"   RLLF=0   XLMajor=0   XLMinor=0   XKMajor=0   XKMinor=0   CmMajor=0   CmMinor=0   DbMajor=0   DbMinor=0   DsMajor=0   DsMinor=0   Rd=0   Ro=0   MaxAggSize=0
   Frame=748977   DesignSect="Program Determined"   FrameType="Program Determined"   RLLF=0   XLMajor=0   XLMinor=0   XKMajor=0   XKMinor=0   CmMajor=0   CmMinor=0   DbMajor=0   DbMinor=0   DsMajor=0   DsMinor=0   Rd=0   Ro=0   MaxAggSize=0
   Frame=748978   DesignSect="Program Determined"   FrameType="Program Determined"   RLLF=0   XLMajor=0   XLMinor=0   XKMajor=0   XKMinor=0   CmMajor=0   CmMinor=0   DbMajor=0   DbMinor=0   DsMajor=0   DsMinor=0   Rd=0   Ro=0   MaxAggSize=0
   Frame=748979   DesignSect="Program Determined"   FrameType="Program Determined"   RLLF=0   XLMajor=0   XLMinor=0   XKMajor=0   XKMinor=0   CmMajor=0   CmMinor=0   DbMajor=0   DbMinor=0   DsMajor=0   DsMinor=0   Rd=0   Ro=0   MaxAggSize=0
   Frame=748980   DesignSect="Program Determined"   FrameType="Program Determined"   RLLF=0   XLMajor=0   XLMinor=0   XKMajor=0   XKMinor=0   CmMajor=0   CmMinor=0   DbMajor=0   DbMinor=0   DsMajor=0   DsMinor=0   Rd=0   Ro=0   MaxAggSize=0
   Frame=748981   DesignSect="Program Determined"   FrameType="Program Determined"   RLLF=0   XLMajor=0   XLMinor=0   XKMajor=0   XKMinor=0   CmMajor=0   CmMinor=0   DbMajor=0   DbMinor=0   DsMajor=0   DsMinor=0   Rd=0   Ro=0   MaxAggSize=0
   Frame=748982   DesignSect="Program Determined"   FrameType="Program Determined"   RLLF=0   XLMajor=0   XLMinor=0   XKMajor=0   XKMinor=0   CmMajor=0   CmMinor=0   DbMajor=0   DbMinor=0   DsMajor=0   DsMinor=0   Rd=0   Ro=0   MaxAggSize=0
   Frame=748983   DesignSect="Program Determined"   FrameType="Program Determined"   RLLF=0   XLMajor=0   XLMinor=0   XKMajor=0   XKMinor=0   CmMajor=0   CmMinor=0   DbMajor=0   DbMinor=0   DsMajor=0   DsMinor=0   Rd=0   Ro=0   MaxAggSize=0
   Frame=748984   DesignSect="Program Determined"   FrameType="Program Determined"   RLLF=0   XLMajor=0   XLMinor=0   XKMajor=0   XKMinor=0   CmMajor=0   CmMinor=0   DbMajor=0   DbMinor=0   DsMajor=0   DsMinor=0   Rd=0   Ro=0   MaxAggSize=0
   Frame=748985   DesignSect="Program Determined"   FrameType="Program Determined"   RLLF=0   XLMajor=0   XLMinor=0   XKMajor=0   XKMinor=0   CmMajor=0   CmMinor=0   DbMajor=0   DbMinor=0   DsMajor=0   DsMinor=0   Rd=0   Ro=0   MaxAggSize=0
   Frame=748986   DesignSect="Program Determined"   FrameType="Program Determined"   RLLF=0   XLMajor=0   XLMinor=0   XKMajor=0   XKMinor=0   CmMajor=0   CmMinor=0   DbMajor=0   DbMinor=0   DsMajor=0   DsMinor=0   Rd=0   Ro=0   MaxAggSize=0
   Frame=748987   DesignSect="Program Determined"   FrameType="Program Determined"   RLLF=0   XLMajor=0   XLMinor=0   XKMajor=0   XKMinor=0   CmMajor=0   CmMinor=0   DbMajor=0   DbMinor=0   DsMajor=0   DsMinor=0   Rd=0   Ro=0   MaxAggSize=0
   Frame=748988   DesignSect="Program Determined"   FrameType="Program Determined"   RLLF=0   XLMajor=0   XLMinor=0   XKMajor=0   XKMinor=0   CmMajor=0   CmMinor=0   DbMajor=0   DbMinor=0   DsMajor=0   DsMinor=0   Rd=0   Ro=0   MaxAggSize=0
   Frame=748989   DesignSect="Program Determined"   FrameType="Program Determined"   RLLF=0   XLMajor=0   XLMinor=0   XKMajor=0   XKMinor=0   CmMajor=0   CmMinor=0   DbMajor=0   DbMinor=0   DsMajor=0   DsMinor=0   Rd=0   Ro=0   MaxAggSize=0
   Frame=748990   DesignSect="Program Determined"   FrameType="Program Determined"   RLLF=0   XLMajor=0   XLMinor=0   XKMajor=0   XKMinor=0   CmMajor=0   CmMinor=0   DbMajor=0   DbMinor=0   DsMajor=0   DsMinor=0   Rd=0   Ro=0   MaxAggSize=0
# ... 30 like lines cut
 
TABLE:  "PREFERENCES - ALUMINUM DESIGN - AA 2015"
   THDesign=Envelopes   SRatioLimit=1   Provision=ASD   LatFact=1.33333333333333   UseLatFact=No   Bridge=No   OmegaTy=1.65   OmegaTr=1.95   OmegaC=1.65   OmegaBo=1.65   OmegaBr=1.95   OmegaVo=1.65   OmegaVr=1.95
 
TABLE:  "PREFERENCES - COLD FORMED DESIGN - AISI-ASD96"
   THDesign=Envelopes   FrameType="Braced Frame"   SRatioLimit=1   MaxIter=1   OmegaBS=1.67   OmegaBUS=1.67   OmegaBLTB=1.67   OmegaVS=1.67   OmegaVNS=1.5   OmegaT=1.67   OmegaC=1.8
 
TABLE:  "PREFERENCES - CONCRETE DESIGN - CSA-A233-14"
   THDesign=Envelopes   NumCurves=24   NumPoints=11   MinEccen=Yes   BCCDesign=Yes   CTorsion=Yes   PatLLF=0.75   UFLimit=0.95   PhiS=0.85   PhiC=0.65
 
TABLE:  "PREFERENCES - CONCRETE SHELL DESIGN - EUROCODE 2-2004"
   Country="CEN Default"   GammaS=1.15   GammaC=1.5   AlphaCC=1
 
TABLE:  "PREFERENCES - DIMENSIONAL"
   MergeTol=0.001   FineGrid=0.25   Nudge=0.25   SelectTol=3   SnapTol=12   SLineThick=1   PLineThick=4   MaxFont=8   MinFont=3   AutoZoom=10   ShrinkFact=70   TextFileLen=240
 
TABLE:  "PREFERENCES - STEEL DESIGN - AISC 360-10"
   THDesign=Envelopes   FrameType=SMF   PatLLF=0.75   SRatioLimit=0.95   MaxIter=1   SDC=D   SeisCode=No   SeisLoad=No   ImpFactor=1   SystemRho=1   SystemSds=0.5   SystemR=8   SystemCd=5.5   Omega0=3   Provision=LRFD _
        AMethod="Direct Analysis"   SOMethod="General 2nd Order"   SRMethod="Tau-b Fixed"   NLCoeff=0.002   PhiB=0.9   PhiC=0.9   PhiTY=0.9   PhiTF=0.75   PhiV=0.9   PhiVRolledI=1   PhiVT=0.9   PlugWeld=Yes   HSSWelding=ERW   HSSReduceT=No _
        CheckDefl=No   DLRat=120   SDLAndLLRat=120   LLRat=360   TotalRat=240   NetRat=240
 
TABLE:  "PROGRAM CONTROL"
   ProgramName=SAP2000   Version=24.0.0   CurrUnits="Tonf, m, C"   SteelCode="AISC 360-10"   ConcCode="CSA A23.3-14"   AlumCode="AA 2015"   ColdCode=AISI-ASD96   RegenHinge=Yes
 
TABLE:  "PROJECT INFORMATION"
   Item="Company Name"   Data=po
   Item="Client Name"
   Item="Project Name"
   Item="Project Number"
   Item="Model Name"
   Item="Model Description"
   Item="Revision Number"
   Item="Frame Type"
   Item=Engineer
   Item=Checker
   Item=Supervisor
   Item="Issue Code"
   Item="Design Code"
 
TABLE:  "REBAR SIZES"
   RebarID=#2   Area=3.2258E-05   Diameter=0.00635
   RebarID=#3   Area=7.09675996154547E-05   Diameter=0.009525
   RebarID=#4   Area=0.000129032001922727   Diameter=0.0127
   RebarID=#5   Area=0.000199999601538181   Diameter=0.015875
   RebarID=#6   Area=0.000283870398461819   Diameter=0.01905
   RebarID=#7   Area=0.000387096015381813   Diameter=0.022225
   RebarID=#8   Area=0.000509676413843632   Diameter=0.0254
   RebarID=#9   Area=0.00064516   Diameter=0.0286512005329132
   RebarID=#10   Area=0.00081935318769455   Diameter=0.0322579995155334
   RebarID=#11   Area=0.00100644956308365   Diameter=0.0358139991521835
   RebarID=#14   Area=0.00145161   Diameter=0.0430021989583969
   RebarID=#18   Area=0.00258064   Diameter=0.0573277992248535
   RebarID=10M   Area=0.000100000004162606   Diameter=0.0113000003604438
   RebarID=15M   Area=0.000200000008325212   Diameter=0.0160000002402959
   RebarID=20M   Area=0.000300000012487818   Diameter=0.0195000002928606
   RebarID=25M   Area=0.000500000020813031   Diameter=0.0252000011414055
   RebarID=30M   Area=0.000700000029138243   Diameter=0.0299000000675832
   RebarID=35M   Area=0.00100000004162606   Diameter=0.0357000012990997
   RebarID=45M   Area=0.00150000006243909   Diameter=0.0437000014192476
   RebarID=55M   Area=0.00250000010406515   Diameter=0.056400002372922
   RebarID=6d   Area=2.83000004150781E-05   Diameter=0.00600000009011096
   RebarID=8d   Area=5.03000013308514E-05   Diameter=0.00800000012014795
   RebarID=10d   Area=7.85000032676458E-05   Diameter=0.0100000001501849
   RebarID=12d   Area=0.000113000004703745   Diameter=0.0120000001802219
   RebarID=14d   Area=0.000154000006410413   Diameter=0.0140000002102589
   RebarID=16d   Area=0.000201000008366838   Diameter=0.0160000002402959
   RebarID=20d   Area=0.000314000013070583   Diameter=0.0200000003003699
   RebarID=25d   Area=0.000491000020438396   Diameter=0.0250000003754623
   RebarID=26d   Area=0.000531000022103439   Diameter=0.0260000003904808
   RebarID=28d   Area=0.000616000025641654   Diameter=0.0280000004205178
   RebarID=N12   Area=0.000113000004703745   Diameter=0.0120000001802219
   RebarID=N16   Area=0.000201000008366838   Diameter=0.0160000002402959
   RebarID=N20   Area=0.000314000013070583   Diameter=0.0200000003003699
   RebarID=N24   Area=0.00045200001881498   Diameter=0.0240000003604438
   RebarID=N28   Area=0.000616000025641654   Diameter=0.0280000004205178
   RebarID=N32   Area=0.000804000033467353   Diameter=0.0320000004805918
   RebarID=N36   Area=0.00102000004245858   Diameter=0.0360000005406658
 
TABLE:  "SOLID PROPERTY DEFINITIONS"
   SolidProp=Solid1   Material=BTCT   MatAngleA=0   MatAngleB=0   MatAngleC=0   InComp=Yes   Color=Gray8Dark
 
END TABLE DATA
