File D:\ResearchLab\02_Projects\02_Projects\Tap chi XD_SFOA\code\SOO_MPJ\MPJ_Sap\SOO_Cost_W06\MPJ_6.$2k was saved on m/d/yy at h:mm:ss
 
TABLE:  "ACTIVE DEGREES OF FREEDOM"
   UX=Yes   UY=Yes   UZ=Yes   RX=Yes   RY=Yes   RZ=Yes
 
TABLE:  "ANALYSIS OPTIONS"
   Solver=Advanced   SolverProc=Auto   Force32Bit=No   StiffCase=None   GeomMod=None   HingeOpt="In Elements"   NumAThreads=0   MaxFileSize=0   NumDThreads=0   NumRThreads=0   UseMMFiles="Program Determined"   AllowDiff=No
 
TABLE:  "AREA AUTO MESH ASSIGNMENTS"
   Area=20405   MeshType="Number of Elements"   MeshGroup=ALL   Number1=3   Number2=3   LocalEdge=No   LocalFace=No   SuppEdge=No   SuppFace=No   SubMesh=No
   Area=20406   MeshType="Number of Elements"   MeshGroup=ALL   Number1=3   Number2=3   LocalEdge=No   LocalFace=No   SuppEdge=No   SuppFace=No   SubMesh=No
   Area=20407   MeshType="Number of Elements"   MeshGroup=ALL   Number1=3   Number2=3   LocalEdge=No   LocalFace=No   SuppEdge=No   SuppFace=No   SubMesh=No
   Area=20408   MeshType="Number of Elements"   MeshGroup=ALL   Number1=3   Number2=3   LocalEdge=No   LocalFace=No   SuppEdge=No   SuppFace=No   SubMesh=No
   Area=20409   MeshType="Number of Elements"   MeshGroup=ALL   Number1=3   Number2=3   LocalEdge=No   LocalFace=No   SuppEdge=No   SuppFace=No   SubMesh=No
   Area=20410   MeshType="Number of Elements"   MeshGroup=ALL   Number1=3   Number2=3   LocalEdge=No   LocalFace=No   SuppEdge=No   SuppFace=No   SubMesh=No
   Area=20411   MeshType="Number of Elements"   MeshGroup=ALL   Number1=3   Number2=3   LocalEdge=No   LocalFace=No   SuppEdge=No   SuppFace=No   SubMesh=No
   Area=20412   MeshType="Number of Elements"   MeshGroup=ALL   Number1=3   Number2=3   LocalEdge=No   LocalFace=No   SuppEdge=No   SuppFace=No   SubMesh=No
   Area=20413   MeshType="Number of Elements"   MeshGroup=ALL   Number1=3   Number2=3   LocalEdge=No   LocalFace=No   SuppEdge=No   SuppFace=No   SubMesh=No
   Area=20414   MeshType="Number of Elements"   MeshGroup=ALL   Number1=3   Number2=3   LocalEdge=No   LocalFace=No   SuppEdge=No   SuppFace=No   SubMesh=No
   Area=20415   MeshType="Number of Elements"   MeshGroup=ALL   Number1=3   Number2=3   LocalEdge=No   LocalFace=No   SuppEdge=No   SuppFace=No   SubMesh=No
   Area=20416   MeshType="Number of Elements"   MeshGroup=ALL   Number1=3   Number2=3   LocalEdge=No   LocalFace=No   SuppEdge=No   SuppFace=No   SubMesh=No
   Area=20417   MeshType="Number of Elements"   MeshGroup=ALL   Number1=3   Number2=3   LocalEdge=No   LocalFace=No   SuppEdge=No   SuppFace=No   SubMesh=No
   Area=20418   MeshType="Number of Elements"   MeshGroup=ALL   Number1=3   Number2=3   LocalEdge=No   LocalFace=No   SuppEdge=No   SuppFace=No   SubMesh=No
   Area=20419   MeshType="Number of Elements"   MeshGroup=ALL   Number1=3   Number2=3   LocalEdge=No   LocalFace=No   SuppEdge=No   SuppFace=No   SubMesh=No
 
TABLE:  "AREA LOADS - UNIFORM"
   Area=20405   LoadPat=LL   CoordSys=GLOBAL   Dir=Gravity   UnifLoad=1.00034158457019
   Area=20406   LoadPat=LL   CoordSys=GLOBAL   Dir=Gravity   UnifLoad=1.00034158457019
   Area=20407   LoadPat=LL   CoordSys=GLOBAL   Dir=Gravity   UnifLoad=1.00034158457019
   Area=20408   LoadPat=LL   CoordSys=GLOBAL   Dir=Gravity   UnifLoad=1.00034158457019
   Area=20409   LoadPat=LL   CoordSys=GLOBAL   Dir=Gravity   UnifLoad=1.00034158457019
   Area=20410   LoadPat=LL   CoordSys=GLOBAL   Dir=Gravity   UnifLoad=1.00034158457019
   Area=20411   LoadPat=LL   CoordSys=GLOBAL   Dir=Gravity   UnifLoad=1.00034158457019
   Area=20412   LoadPat=LL   CoordSys=GLOBAL   Dir=Gravity   UnifLoad=1.00034158457019
   Area=20413   LoadPat=LL   CoordSys=GLOBAL   Dir=Gravity   UnifLoad=1.00034158457019
   Area=20414   LoadPat=LL   CoordSys=GLOBAL   Dir=Gravity   UnifLoad=1.00034158457019
   Area=20415   LoadPat=LL   CoordSys=GLOBAL   Dir=Gravity   UnifLoad=1.00034158457019
   Area=20416   LoadPat=LL   CoordSys=GLOBAL   Dir=Gravity   UnifLoad=1.00034158457019
   Area=20417   LoadPat=LL   CoordSys=GLOBAL   Dir=Gravity   UnifLoad=1.00034158457019
   Area=20418   LoadPat=LL   CoordSys=GLOBAL   Dir=Gravity   UnifLoad=1.00034158457019
   Area=20419   LoadPat=LL   CoordSys=GLOBAL   Dir=Gravity   UnifLoad=1.00034158457019
 
TABLE:  "AREA SECTION ASSIGNMENTS"
   Area=20405   Section=Deck   MatProp=Default
   Area=20406   Section=Deck   MatProp=Default
   Area=20407   Section=Deck   MatProp=Default
   Area=20408   Section=Deck   MatProp=Default
   Area=20409   Section=Deck   MatProp=Default
   Area=20410   Section=Deck   MatProp=Default
   Area=20411   Section=Deck   MatProp=Default
   Area=20412   Section=Deck   MatProp=Default
   Area=20413   Section=Deck   MatProp=Default
   Area=20414   Section=Deck   MatProp=Default
   Area=20415   Section=Deck   MatProp=Default
   Area=20416   Section=Deck   MatProp=Default
   Area=20417   Section=Deck   MatProp=Default
   Area=20418   Section=Deck   MatProp=Default
   Area=20419   Section=Deck   MatProp=Default
 
TABLE:  "AREA SECTION PROPERTIES"
   Section=Deck   Material=BTCT   MatAngle=0   AreaType=Shell   Type=Shell-Thin   DrillDOF=Yes   Thickness=0.3   BendThick=0.3   Color=Green   F11Mod=1   F22Mod=1   F12Mod=1   M11Mod=1   M22Mod=1   M12Mod=1   V13Mod=1   V23Mod=1   MMod=1 _
        WMod=1   Notes="Added 24-Feb-23 16:56:47"
 
TABLE:  "AREA SECTION PROPERTY DESIGN PARAMETERS"
   Section=Deck   RebarMat=None   RebarOpt=Default
 
TABLE:  "AREA SECTION PROPERTY - TIME DEPENDENT"
   Section=Deck   TypeSize=User   AutoSFSize=1   UserValSize=0.1
 
TABLE:  "AUTO COMBINATION OPTION DATA 01 - GENERAL"
   DesignType=Concrete   AutoGen=Yes
 
TABLE:  "AUTO COMBINATION OPTION DATA 02 - USER DATA"
   DesignType=Concrete   LSType=Strength   LCName=DEAD
   DesignType=Concrete   LSType=Strength   LCName=LL
 
TABLE:  "AUTO WAVE 3 - WAVE CHARACTERISTICS - GENERAL"
   WaveChar=Default   WaveType="From Theory"   KinFactor=1   SWaterDepth=45   WaveHeight=18   WavePeriod=12   WaveTheory=Linear
 
TABLE:  "CASE - MODAL 1 - GENERAL"
   Case=MODAL   ModeType=Eigen   MaxNumModes=12   MinNumModes=1   EigenShift=0   EigenCutoff=0   EigenTol=1E-09   AutoShift=Yes
 
TABLE:  "CASE - STATIC 1 - LOAD ASSIGNMENTS"
   Case=DEAD   LoadType="Load pattern"   LoadName=DEAD   LoadSF=1
   Case=LL   LoadType="Load pattern"   LoadName=LL   LoadSF=1
 
TABLE:  "COMBINATION DEFINITIONS"
   ComboName=COMB1   ComboType="Linear Add"   AutoDesign=No   CaseName=DEAD   ScaleFactor=1   SteelDesign=None   ConcDesign=Strength   AlumDesign=None   ColdDesign=None
   ComboName=COMB2   ComboType="Linear Add"   AutoDesign=No   CaseName=DEAD   ScaleFactor=1   SteelDesign=None   ConcDesign=Strength   AlumDesign=None   ColdDesign=None
   ComboName=COMB2   CaseName=LL   ScaleFactor=1
   ComboName=BAO   ComboType=Envelope   AutoDesign=No   CaseName=COMB1   ScaleFactor=1   SteelDesign=None   ConcDesign=Strength   AlumDesign=None   ColdDesign=None
   ComboName=BAO   CaseName=COMB2   ScaleFactor=1
   ComboName=DCON1   ComboType="Linear Add"   AutoDesign=Yes   CaseName=DEAD   ScaleFactor=1.4   SteelDesign=None   ConcDesign=Strength   AlumDesign=None   ColdDesign=None   GUID=bb4fff9a-98b5-44d1-9fde-34d92700a8e9   Notes="Dead Only; Strength"
   ComboName=DCON2   ComboType="Linear Add"   AutoDesign=Yes   CaseName=DEAD   ScaleFactor=1.25   SteelDesign=None   ConcDesign=Strength   AlumDesign=None   ColdDesign=None   GUID=505bcda7-6fac-4dd0-b03e-c591d1ffc6ce   Notes="Dead + Live; Strength"
   ComboName=DCON2   CaseName=LL   ScaleFactor=1.5
 
TABLE:  "CONNECTIVITY - AREA"
   Area=20405   Joint1=59713   Joint2=59689   Joint3=59674   Joint4=59673   GUID=753b4c61-58d4-4930-ac11-e95e4168c209
   Area=20406   Joint1=59673   Joint2=59674   Joint3=59676   Joint4=59675   GUID=75bf566e-d0f2-46a5-bcd4-48cba18f69c6
   Area=20407   Joint1=59675   Joint2=59676   Joint3=59678   Joint4=59677   GUID=7691fbc5-22b5-4ec2-86a9-3dfca94371dd
   Area=20408   Joint1=59677   Joint2=59678   Joint3=59680   Joint4=59679   GUID=d207c4dd-8124-44db-9928-348395b72d10
   Area=20409   Joint1=59679   Joint2=59680   Joint3=59691   Joint4=59714   GUID=9ec86573-71a0-4454-a5d8-01c266a8f924
   Area=20410   Joint1=59689   Joint2=59690   Joint3=59681   Joint4=59674   GUID=6460f064-1782-414d-ad07-c15c884b0d13
   Area=20411   Joint1=59674   Joint2=59681   Joint3=59682   Joint4=59676   GUID=a147e07b-b03c-4b59-8836-f5e9d4f53ef7
   Area=20412   Joint1=59676   Joint2=59682   Joint3=59683   Joint4=59678   GUID=e500df85-dc69-4cde-91b5-4bf2e98b5b37
   Area=20413   Joint1=59678   Joint2=59683   Joint3=59684   Joint4=59680   GUID=ca70019b-2b20-4f8e-b796-4299298037e3
   Area=20414   Joint1=59680   Joint2=59684   Joint3=59692   Joint4=59691   GUID=f94f8b97-1eb5-4711-b074-ccb38b1d4308
   Area=20415   Joint1=59690   Joint2=59715   Joint3=59685   Joint4=59681   GUID=28def80d-f15d-4732-bfd6-1041672867c5
   Area=20416   Joint1=59681   Joint2=59685   Joint3=59686   Joint4=59682   GUID=66f5aee1-3792-4c4b-8da8-f7ceda94f0e7
   Area=20417   Joint1=59682   Joint2=59686   Joint3=59687   Joint4=59683   GUID=c98f01b3-adf7-438d-97ec-3cedb0e71ee8
   Area=20418   Joint1=59683   Joint2=59687   Joint3=59688   Joint4=59684   GUID=a94232eb-f44c-46f6-9a21-5082b1af9a7e
   Area=20419   Joint1=59684   Joint2=59688   Joint3=59716   Joint4=59692   GUID=a9542e45-4581-41c2-bd6d-22c28f614dab
 
TABLE:  "CONNECTIVITY - FRAME"
   Frame=65554   JointI=59673   JointJ=59674   IsCurved=No   GUID=c05f3335-a1fb-49f6-8bde-fb1855c9e30d
   Frame=65555   JointI=59675   JointJ=59676   IsCurved=No   GUID=38a1d0e3-80ad-4996-8ba6-2b24f8f80b58
   Frame=65556   JointI=59677   JointJ=59678   IsCurved=No   GUID=52e0f1fd-e589-497d-9119-ece9347690a2
   Frame=65557   JointI=59679   JointJ=59680   IsCurved=No   GUID=6fd887f9-b801-4ba8-9a22-86ed6b57a458
   Frame=65558   JointI=59674   JointJ=59681   IsCurved=No   GUID=554ca01d-cb6a-48e4-9767-9fa894124bef
   Frame=65559   JointI=59676   JointJ=59682   IsCurved=No   GUID=ef4e0abd-fbc6-4dd7-9f91-017656e1ff31
   Frame=65560   JointI=59678   JointJ=59683   IsCurved=No   GUID=98d9dfab-aa07-4dd8-9363-faddaf488ce5
   Frame=65561   JointI=59680   JointJ=59684   IsCurved=No   GUID=54ebdef3-79f7-41c8-b260-10a1e0d775bc
   Frame=65562   JointI=59681   JointJ=59685   IsCurved=No   GUID=091eb5fe-9056-47ec-8f74-15707afad4d1
   Frame=65563   JointI=59682   JointJ=59686   IsCurved=No   GUID=8515d795-08e1-491f-8a9f-9dd8bc27cfb1
   Frame=65564   JointI=59683   JointJ=59687   IsCurved=No   GUID=bd650d5e-307e-41c6-b86e-1f962bb7c279
   Frame=65565   JointI=59684   JointJ=59688   IsCurved=No   GUID=5cb85062-22d6-4948-a138-863c3778ae95
   Frame=65566   JointI=59689   JointJ=59674   IsCurved=No   GUID=bf17ea51-50f8-4443-b511-4303010de2fc
   Frame=65567   JointI=59690   JointJ=59681   IsCurved=No   GUID=a0a6b26c-02e0-4fdc-8ec8-3bf9bc4c21be
   Frame=65568   JointI=59674   JointJ=59676   IsCurved=No   GUID=d22976a1-0575-4d32-a566-9177a97cfe28
   Frame=65569   JointI=59681   JointJ=59682   IsCurved=No   GUID=919bb85f-0822-4482-89c0-161ca6525507
   Frame=65570   JointI=59676   JointJ=59678   IsCurved=No   GUID=0da7ad27-c8d7-403e-98a1-b7fd5b3d96ef
   Frame=65571   JointI=59682   JointJ=59683   IsCurved=No   GUID=d4f199bb-0ec7-4b29-8492-2b0d302ad997
   Frame=65572   JointI=59678   JointJ=59680   IsCurved=No   GUID=67341b1a-6344-4f55-a0c9-d8a0d87aad5d
   Frame=65573   JointI=59683   JointJ=59684   IsCurved=No   GUID=49033cb6-9b09-4f2f-a37a-bd665bbfd168
   Frame=65574   JointI=59680   JointJ=59691   IsCurved=No   GUID=b173bc43-2160-4aec-a4c4-05a7ab6552ce
   Frame=65575   JointI=59684   JointJ=59692   IsCurved=No   GUID=c69b80b6-9482-415c-9d4d-186380cf08a7
   Frame=65576   JointI=59674   JointJ=59693   IsCurved=No   GUID=1ad0d6bd-3d23-4d5a-9803-883823e33783
   Frame=65577   JointI=59693   JointJ=59694   IsCurved=No   GUID=77bca27a-9691-44bf-b93f-7a75e3bc46bd
   Frame=65578   JointI=59694   JointJ=59695   IsCurved=No   GUID=be76a7a3-9cc6-4883-beef-80f9cfab7d85
   Frame=65579   JointI=59676   JointJ=59696   IsCurved=No   GUID=efa006a1-8cc3-41d7-89d7-3b1cd4967302
   Frame=65580   JointI=59696   JointJ=59697   IsCurved=No   GUID=39979350-227d-43c2-b5c6-885c659c9e0d
   Frame=65581   JointI=59697   JointJ=59698   IsCurved=No   GUID=57918f60-1930-46ae-b886-9a36f564dc39
   Frame=65582   JointI=59678   JointJ=59699   IsCurved=No   GUID=66db452c-511f-4ac8-ba21-91033a2a06a4
   Frame=65583   JointI=59699   JointJ=59700   IsCurved=No   GUID=3ee1efdb-e023-4123-b6e4-5d591170f489
   Frame=65584   JointI=59700   JointJ=59701   IsCurved=No   GUID=1ce0a67e-d9f1-4169-b0ec-b029d48d7f93
   Frame=65585   JointI=59680   JointJ=59702   IsCurved=No   GUID=c6578ba9-63d8-4bb2-812e-1c6fb85a6bdd
   Frame=65586   JointI=59702   JointJ=59703   IsCurved=No   GUID=5bd07ccb-ac75-47b4-bac6-1673ad3e36eb
   Frame=65587   JointI=59703   JointJ=59704   IsCurved=No   GUID=c9cc8313-ae08-4b39-88fa-4ec7f8a66eb5
   Frame=65588   JointI=59681   JointJ=59705   IsCurved=No   GUID=5ac7a62b-33f1-40e0-996a-81731cce7918
   Frame=65589   JointI=59705   JointJ=59706   IsCurved=No   GUID=07ac5d5b-3560-443f-843e-2f8cf1cf61db
   Frame=65590   JointI=59682   JointJ=59707   IsCurved=No   GUID=29aad1a9-75ed-452c-bd11-545a2e0a95a0
   Frame=65591   JointI=59707   JointJ=59708   IsCurved=No   GUID=94233d8e-1865-4415-b99a-32d25707aae9
   Frame=65592   JointI=59683   JointJ=59709   IsCurved=No   GUID=cbde44c2-ba2e-472a-a6e9-cebfd2e8f47b
   Frame=65593   JointI=59709   JointJ=59710   IsCurved=No   GUID=6df31c98-9cde-4a1f-a658-d005d3179826
   Frame=65594   JointI=59684   JointJ=59711   IsCurved=No   GUID=d9039e95-f759-47e4-95cb-9ec64c4ba551
   Frame=65595   JointI=59711   JointJ=59712   IsCurved=No   GUID=227d11c4-bb50-4a19-90a8-dccc99fa4687
   Frame=65596   JointI=59693   JointJ=59696   IsCurved=No   GUID=62b01c4c-128f-4ea2-9002-ffa7e6363d83
   Frame=65597   JointI=59696   JointJ=59699   IsCurved=No   GUID=6b6d1ab5-7741-4248-9cc1-b18192847274
   Frame=65598   JointI=59699   JointJ=59702   IsCurved=No   GUID=7fb2091f-19f9-4766-b5af-3ec05f798681
 
TABLE:  "COORDINATE SYSTEMS"
   Name=GLOBAL   Type=Cartesian   X=0   Y=0   Z=0   AboutZ=0   AboutY=0   AboutX=0
 
TABLE:  "DATABASE DOCUMENTATION"
 
TABLE:  "DATABASE FORMAT TYPES"
   UnitsCurr=Yes   OverrideE=No
 
TABLE:  "FRAME AUTO MESH ASSIGNMENTS"
   Frame=65554   AutoMesh=Yes   AtJoints=Yes   AtFrames=No   NumSegments=0   MaxLength=0   MaxDegrees=0
   Frame=65555   AutoMesh=Yes   AtJoints=Yes   AtFrames=No   NumSegments=0   MaxLength=0   MaxDegrees=0
   Frame=65556   AutoMesh=Yes   AtJoints=Yes   AtFrames=No   NumSegments=0   MaxLength=0   MaxDegrees=0
   Frame=65557   AutoMesh=Yes   AtJoints=Yes   AtFrames=No   NumSegments=0   MaxLength=0   MaxDegrees=0
   Frame=65558   AutoMesh=Yes   AtJoints=Yes   AtFrames=No   NumSegments=0   MaxLength=0   MaxDegrees=0
   Frame=65559   AutoMesh=Yes   AtJoints=Yes   AtFrames=No   NumSegments=0   MaxLength=0   MaxDegrees=0
   Frame=65560   AutoMesh=Yes   AtJoints=Yes   AtFrames=No   NumSegments=0   MaxLength=0   MaxDegrees=0
   Frame=65561   AutoMesh=Yes   AtJoints=Yes   AtFrames=No   NumSegments=0   MaxLength=0   MaxDegrees=0
   Frame=65562   AutoMesh=Yes   AtJoints=Yes   AtFrames=No   NumSegments=0   MaxLength=0   MaxDegrees=0
   Frame=65563   AutoMesh=Yes   AtJoints=Yes   AtFrames=No   NumSegments=0   MaxLength=0   MaxDegrees=0
   Frame=65564   AutoMesh=Yes   AtJoints=Yes   AtFrames=No   NumSegments=0   MaxLength=0   MaxDegrees=0
   Frame=65565   AutoMesh=Yes   AtJoints=Yes   AtFrames=No   NumSegments=0   MaxLength=0   MaxDegrees=0
   Frame=65566   AutoMesh=Yes   AtJoints=Yes   AtFrames=No   NumSegments=0   MaxLength=0   MaxDegrees=0
   Frame=65567   AutoMesh=Yes   AtJoints=Yes   AtFrames=No   NumSegments=0   MaxLength=0   MaxDegrees=0
   Frame=65568   AutoMesh=Yes   AtJoints=Yes   AtFrames=No   NumSegments=0   MaxLength=0   MaxDegrees=0
   Frame=65569   AutoMesh=Yes   AtJoints=Yes   AtFrames=No   NumSegments=0   MaxLength=0   MaxDegrees=0
   Frame=65570   AutoMesh=Yes   AtJoints=Yes   AtFrames=No   NumSegments=0   MaxLength=0   MaxDegrees=0
   Frame=65571   AutoMesh=Yes   AtJoints=Yes   AtFrames=No   NumSegments=0   MaxLength=0   MaxDegrees=0
   Frame=65572   AutoMesh=Yes   AtJoints=Yes   AtFrames=No   NumSegments=0   MaxLength=0   MaxDegrees=0
   Frame=65573   AutoMesh=Yes   AtJoints=Yes   AtFrames=No   NumSegments=0   MaxLength=0   MaxDegrees=0
# ... 25 like lines cut
 
TABLE:  "FRAME DESIGN PROCEDURES"
   Frame=65554   DesignProc="From Material"
   Frame=65555   DesignProc="From Material"
   Frame=65556   DesignProc="From Material"
   Frame=65557   DesignProc="From Material"
   Frame=65558   DesignProc="From Material"
   Frame=65559   DesignProc="From Material"
   Frame=65560   DesignProc="From Material"
   Frame=65561   DesignProc="From Material"
   Frame=65562   DesignProc="From Material"
   Frame=65563   DesignProc="From Material"
   Frame=65564   DesignProc="From Material"
   Frame=65565   DesignProc="From Material"
   Frame=65566   DesignProc="From Material"
   Frame=65567   DesignProc="From Material"
   Frame=65568   DesignProc="From Material"
   Frame=65569   DesignProc="From Material"
   Frame=65570   DesignProc="From Material"
   Frame=65571   DesignProc="From Material"
   Frame=65572   DesignProc="From Material"
   Frame=65573   DesignProc="From Material"
   Frame=65574   DesignProc="From Material"
   Frame=65575   DesignProc="From Material"
   Frame=65576   DesignProc="From Material"
   Frame=65577   DesignProc="No Design"
   Frame=65578   DesignProc="No Design"
   Frame=65579   DesignProc="From Material"
   Frame=65580   DesignProc="No Design"
   Frame=65581   DesignProc="No Design"
   Frame=65582   DesignProc="From Material"
   Frame=65583   DesignProc="No Design"
   Frame=65584   DesignProc="No Design"
   Frame=65585   DesignProc="From Material"
   Frame=65586   DesignProc="No Design"
   Frame=65587   DesignProc="No Design"
   Frame=65588   DesignProc="No Design"
   Frame=65589   DesignProc="No Design"
   Frame=65590   DesignProc="No Design"
   Frame=65591   DesignProc="No Design"
   Frame=65592   DesignProc="No Design"
   Frame=65593   DesignProc="No Design"
   Frame=65594   DesignProc="No Design"
   Frame=65595   DesignProc="No Design"
   Frame=65596   DesignProc="From Material"
   Frame=65597   DesignProc="From Material"
   Frame=65598   DesignProc="From Material"
 
TABLE:  "FRAME LOAD TRANSFER OPTIONS"
   Frame=65554   Transfer=Yes
   Frame=65555   Transfer=Yes
   Frame=65556   Transfer=Yes
   Frame=65557   Transfer=Yes
   Frame=65558   Transfer=Yes
   Frame=65559   Transfer=Yes
   Frame=65560   Transfer=Yes
   Frame=65561   Transfer=Yes
   Frame=65562   Transfer=Yes
   Frame=65563   Transfer=Yes
   Frame=65564   Transfer=Yes
   Frame=65565   Transfer=Yes
   Frame=65566   Transfer=Yes
   Frame=65567   Transfer=Yes
   Frame=65568   Transfer=Yes
   Frame=65569   Transfer=Yes
   Frame=65570   Transfer=Yes
   Frame=65571   Transfer=Yes
   Frame=65572   Transfer=Yes
   Frame=65573   Transfer=Yes
# ... 25 like lines cut
 
TABLE:  "FRAME LOCAL AXES ASSIGNMENTS 1 - TYPICAL"
   Frame=65576   Angle=90
   Frame=65579   Angle=90
   Frame=65582   Angle=90
   Frame=65585   Angle=90
 
TABLE:  "FRAME OUTPUT STATION ASSIGNMENTS"
   Frame=65554   StationType=MaxStaSpcg   MaxStaSpcg=0.5   AddAtElmInt=Yes   AddAtPtLoad=Yes
   Frame=65555   StationType=MaxStaSpcg   MaxStaSpcg=0.5   AddAtElmInt=Yes   AddAtPtLoad=Yes
   Frame=65556   StationType=MaxStaSpcg   MaxStaSpcg=0.5   AddAtElmInt=Yes   AddAtPtLoad=Yes
   Frame=65557   StationType=MaxStaSpcg   MaxStaSpcg=0.5   AddAtElmInt=Yes   AddAtPtLoad=Yes
   Frame=65558   StationType=MaxStaSpcg   MaxStaSpcg=0.5   AddAtElmInt=Yes   AddAtPtLoad=Yes
   Frame=65559   StationType=MaxStaSpcg   MaxStaSpcg=0.5   AddAtElmInt=Yes   AddAtPtLoad=Yes
   Frame=65560   StationType=MaxStaSpcg   MaxStaSpcg=0.5   AddAtElmInt=Yes   AddAtPtLoad=Yes
   Frame=65561   StationType=MaxStaSpcg   MaxStaSpcg=0.5   AddAtElmInt=Yes   AddAtPtLoad=Yes
   Frame=65562   StationType=MaxStaSpcg   MaxStaSpcg=0.5   AddAtElmInt=Yes   AddAtPtLoad=Yes
   Frame=65563   StationType=MaxStaSpcg   MaxStaSpcg=0.5   AddAtElmInt=Yes   AddAtPtLoad=Yes
   Frame=65564   StationType=MaxStaSpcg   MaxStaSpcg=0.5   AddAtElmInt=Yes   AddAtPtLoad=Yes
   Frame=65565   StationType=MaxStaSpcg   MaxStaSpcg=0.5   AddAtElmInt=Yes   AddAtPtLoad=Yes
   Frame=65566   StationType=MaxStaSpcg   MaxStaSpcg=0.5   AddAtElmInt=Yes   AddAtPtLoad=Yes
   Frame=65567   StationType=MaxStaSpcg   MaxStaSpcg=0.5   AddAtElmInt=Yes   AddAtPtLoad=Yes
   Frame=65568   StationType=MaxStaSpcg   MaxStaSpcg=0.5   AddAtElmInt=Yes   AddAtPtLoad=Yes
   Frame=65569   StationType=MaxStaSpcg   MaxStaSpcg=0.5   AddAtElmInt=Yes   AddAtPtLoad=Yes
   Frame=65570   StationType=MaxStaSpcg   MaxStaSpcg=0.5   AddAtElmInt=Yes   AddAtPtLoad=Yes
   Frame=65571   StationType=MaxStaSpcg   MaxStaSpcg=0.5   AddAtElmInt=Yes   AddAtPtLoad=Yes
   Frame=65572   StationType=MaxStaSpcg   MaxStaSpcg=0.5   AddAtElmInt=Yes   AddAtPtLoad=Yes
   Frame=65573   StationType=MaxStaSpcg   MaxStaSpcg=0.5   AddAtElmInt=Yes   AddAtPtLoad=Yes
   Frame=65574   StationType=MaxStaSpcg   MaxStaSpcg=0.5   AddAtElmInt=Yes   AddAtPtLoad=Yes
   Frame=65575   StationType=MaxStaSpcg   MaxStaSpcg=0.5   AddAtElmInt=Yes   AddAtPtLoad=Yes
   Frame=65576   StationType=MinNumSta   MinNumSta=3   AddAtElmInt=Yes   AddAtPtLoad=Yes
   Frame=65577   StationType=MinNumSta   MinNumSta=3   AddAtElmInt=Yes   AddAtPtLoad=Yes
   Frame=65578   StationType=MinNumSta   MinNumSta=3   AddAtElmInt=Yes   AddAtPtLoad=Yes
   Frame=65579   StationType=MinNumSta   MinNumSta=3   AddAtElmInt=Yes   AddAtPtLoad=Yes
   Frame=65580   StationType=MinNumSta   MinNumSta=3   AddAtElmInt=Yes   AddAtPtLoad=Yes
   Frame=65581   StationType=MinNumSta   MinNumSta=3   AddAtElmInt=Yes   AddAtPtLoad=Yes
   Frame=65582   StationType=MinNumSta   MinNumSta=3   AddAtElmInt=Yes   AddAtPtLoad=Yes
   Frame=65583   StationType=MinNumSta   MinNumSta=3   AddAtElmInt=Yes   AddAtPtLoad=Yes
   Frame=65584   StationType=MinNumSta   MinNumSta=3   AddAtElmInt=Yes   AddAtPtLoad=Yes
   Frame=65585   StationType=MinNumSta   MinNumSta=3   AddAtElmInt=Yes   AddAtPtLoad=Yes
   Frame=65586   StationType=MinNumSta   MinNumSta=3   AddAtElmInt=Yes   AddAtPtLoad=Yes
   Frame=65587   StationType=MinNumSta   MinNumSta=3   AddAtElmInt=Yes   AddAtPtLoad=Yes
   Frame=65588   StationType=MinNumSta   MinNumSta=3   AddAtElmInt=Yes   AddAtPtLoad=Yes
   Frame=65589   StationType=MinNumSta   MinNumSta=3   AddAtElmInt=Yes   AddAtPtLoad=Yes
   Frame=65590   StationType=MinNumSta   MinNumSta=3   AddAtElmInt=Yes   AddAtPtLoad=Yes
   Frame=65591   StationType=MinNumSta   MinNumSta=3   AddAtElmInt=Yes   AddAtPtLoad=Yes
   Frame=65592   StationType=MinNumSta   MinNumSta=3   AddAtElmInt=Yes   AddAtPtLoad=Yes
   Frame=65593   StationType=MinNumSta   MinNumSta=3   AddAtElmInt=Yes   AddAtPtLoad=Yes
   Frame=65594   StationType=MinNumSta   MinNumSta=3   AddAtElmInt=Yes   AddAtPtLoad=Yes
   Frame=65595   StationType=MinNumSta   MinNumSta=3   AddAtElmInt=Yes   AddAtPtLoad=Yes
   Frame=65596   StationType=MaxStaSpcg   MaxStaSpcg=0.5   AddAtElmInt=Yes   AddAtPtLoad=Yes
   Frame=65597   StationType=MaxStaSpcg   MaxStaSpcg=0.5   AddAtElmInt=Yes   AddAtPtLoad=Yes
   Frame=65598   StationType=MaxStaSpcg   MaxStaSpcg=0.5   AddAtElmInt=Yes   AddAtPtLoad=Yes
 
TABLE:  "FRAME SECTION ASSIGNMENTS"
   Frame=65554   AutoSelect=N.A.   AnalSect=TB   MatProp=Default
   Frame=65555   AutoSelect=N.A.   AnalSect=TB   MatProp=Default
   Frame=65556   AutoSelect=N.A.   AnalSect=TB   MatProp=Default
   Frame=65557   AutoSelect=N.A.   AnalSect=TB   MatProp=Default
   Frame=65558   AutoSelect=N.A.   AnalSect=TB   MatProp=Default
   Frame=65559   AutoSelect=N.A.   AnalSect=TB   MatProp=Default
   Frame=65560   AutoSelect=N.A.   AnalSect=TB   MatProp=Default
   Frame=65561   AutoSelect=N.A.   AnalSect=TB   MatProp=Default
   Frame=65562   AutoSelect=N.A.   AnalSect=TB   MatProp=Default
   Frame=65563   AutoSelect=N.A.   AnalSect=TB   MatProp=Default
   Frame=65564   AutoSelect=N.A.   AnalSect=TB   MatProp=Default
   Frame=65565   AutoSelect=N.A.   AnalSect=TB   MatProp=Default
   Frame=65566   AutoSelect=N.A.   AnalSect=LB   MatProp=Default
   Frame=65567   AutoSelect=N.A.   AnalSect=LB   MatProp=Default
   Frame=65568   AutoSelect=N.A.   AnalSect=LB   MatProp=Default
   Frame=65569   AutoSelect=N.A.   AnalSect=LB   MatProp=Default
   Frame=65570   AutoSelect=N.A.   AnalSect=LB   MatProp=Default
   Frame=65571   AutoSelect=N.A.   AnalSect=LB   MatProp=Default
   Frame=65572   AutoSelect=N.A.   AnalSect=LB   MatProp=Default
   Frame=65573   AutoSelect=N.A.   AnalSect=LB   MatProp=Default
   Frame=65574   AutoSelect=N.A.   AnalSect=LB   MatProp=Default
   Frame=65575   AutoSelect=N.A.   AnalSect=LB   MatProp=Default
   Frame=65576   AutoSelect=N.A.   AnalSect=EB   MatProp=Default
   Frame=65577   AutoSelect=N.A.   AnalSect=Piles   MatProp=Default
   Frame=65578   AutoSelect=N.A.   AnalSect=Piles   MatProp=Default
   Frame=65579   AutoSelect=N.A.   AnalSect=EB   MatProp=Default
   Frame=65580   AutoSelect=N.A.   AnalSect=Piles   MatProp=Default
   Frame=65581   AutoSelect=N.A.   AnalSect=Piles   MatProp=Default
   Frame=65582   AutoSelect=N.A.   AnalSect=EB   MatProp=Default
   Frame=65583   AutoSelect=N.A.   AnalSect=Piles   MatProp=Default
   Frame=65584   AutoSelect=N.A.   AnalSect=Piles   MatProp=Default
   Frame=65585   AutoSelect=N.A.   AnalSect=EB   MatProp=Default
   Frame=65586   AutoSelect=N.A.   AnalSect=Piles   MatProp=Default
   Frame=65587   AutoSelect=N.A.   AnalSect=Piles   MatProp=Default
   Frame=65588   AutoSelect=N.A.   AnalSect=Piles   MatProp=Default
   Frame=65589   AutoSelect=N.A.   AnalSect=Piles   MatProp=Default
   Frame=65590   AutoSelect=N.A.   AnalSect=Piles   MatProp=Default
   Frame=65591   AutoSelect=N.A.   AnalSect=Piles   MatProp=Default
   Frame=65592   AutoSelect=N.A.   AnalSect=Piles   MatProp=Default
   Frame=65593   AutoSelect=N.A.   AnalSect=Piles   MatProp=Default
   Frame=65594   AutoSelect=N.A.   AnalSect=Piles   MatProp=Default
   Frame=65595   AutoSelect=N.A.   AnalSect=Piles   MatProp=Default
   Frame=65596   AutoSelect=N.A.   AnalSect=EB-1   MatProp=Default
   Frame=65597   AutoSelect=N.A.   AnalSect=EB-1   MatProp=Default
   Frame=65598   AutoSelect=N.A.   AnalSect=EB-1   MatProp=Default
 
TABLE:  "FRAME SECTION PROPERTIES 01 - GENERAL"
   SectionName=EB   Material=BTCT   Shape=Rectangular   t3=1.2   t2=0.5   Area=0.6   TorsConst=0.0369079665195795   I33=0.072   I22=0.0125   I23=0   AS2=0.5   AS3=0.5   S33Top=0.12   S33Bot=0.12   S22Left=0.05   S22Right=0.05   Z33=0.18 _
        Z22=0.075   R33=0.346410161513775   R22=0.144337567297406   CGOffset3=0   CGOffset2=0   EccV2=0   EccV3=0   Cw=0   Color=Cyan   FromFile=No   AMod=1   A2Mod=1   A3Mod=1   JMod=1   I2Mod=1   I3Mod=1   MMod=1   WMod=1
   SectionName=EB-1   Material=BTCT   Shape=Rectangular   t3=0.5   t2=0.5   Area=0.25   TorsConst=0.00880208333333333   I33=0.00520833333333333   I22=0.00520833333333333   I23=0   AS2=0.208333333333333   AS3=0.208333333333333 _
        S33Top=0.0208333333333333   S33Bot=0.0208333333333333   S22Left=0.0208333333333333   S22Right=0.0208333333333333   Z33=0.03125   Z22=0.03125   R33=0.144337567297406   R22=0.144337567297406   CGOffset3=0   CGOffset2=0   EccV2=0 _
        EccV3=0   Cw=0   Color=Red   FromFile=No   AMod=1   A2Mod=1   A3Mod=1   JMod=1   I2Mod=1   I3Mod=1   MMod=1   WMod=1
   SectionName=LB   Material=BTCT   Shape=Rectangular   t3=0.5   t2=0.5   Area=0.25   TorsConst=0.00880208333333333   I33=0.00520833333333333   I22=0.00520833333333333   I23=0   AS2=0.208333333333333   AS3=0.208333333333333 _
        S33Top=0.0208333333333333   S33Bot=0.0208333333333333   S22Left=0.0208333333333333   S22Right=0.0208333333333333   Z33=0.03125   Z22=0.03125   R33=0.144337567297406   R22=0.144337567297406   CGOffset3=0   CGOffset2=0   EccV2=0 _
        EccV3=0   Cw=0   Color=Green   FromFile=No   AMod=1   A2Mod=1   A3Mod=1   JMod=1   I2Mod=1   I3Mod=1   MMod=1   WMod=1
   SectionName=Piles   Material=BTCTCOC   Shape=Pipe   t3=0.3   tw=0.06   Area=0.045238934211693   TorsConst=0.000692155693438903   I33=0.000346077846719452   I22=0.000346077846719452   I23=0   AS2=0.0235427106611872 _
        AS3=0.0235427106611872   S33Top=0.00230718564479634   S33Bot=0.00230718564479634   S22Left=0.00230718564479634   S22Right=0.00230718564479634   Z33=0.003528   Z22=0.003528   R33=0.0874642784226795   R22=0.0874642784226795 _
        CGOffset3=0   CGOffset2=0   EccV2=0   EccV3=0   Cw=0   Color=Magenta   FromFile=No   AMod=1   A2Mod=1   A3Mod=1   JMod=1   I2Mod=1   I3Mod=1   MMod=1   WMod=1
   SectionName=TB   Material=BTCT   Shape=Rectangular   t3=0.5   t2=0.5   Area=0.25   TorsConst=0.00880208333333333   I33=0.00520833333333333   I22=0.00520833333333333   I23=0   AS2=0.208333333333333   AS3=0.208333333333333 _
        S33Top=0.0208333333333333   S33Bot=0.0208333333333333   S22Left=0.0208333333333333   S22Right=0.0208333333333333   Z33=0.03125   Z22=0.03125   R33=0.144337567297406   R22=0.144337567297406   CGOffset3=0   CGOffset2=0   EccV2=0 _
        EccV3=0   Cw=0   Color=Blue   FromFile=No   AMod=1   A2Mod=1   A3Mod=1   JMod=1   I2Mod=1   I3Mod=1   MMod=1   WMod=1
 
TABLE:  "FRAME SECTION PROPERTIES 02 - CONCRETE COLUMN"
   SectionName=EB   RebarMatL=A706   RebarMatC=A706   ReinfConfig=Rectangular   LatReinf=Ties   Cover=0.05   NumBars3Dir=2   NumBars2Dir=2   BarSizeL=12d   BarSizeC=10d   SpacingC=0.1   NumCBars2=2   NumCBars3=2   ReinfType=Design
   SectionName=EB-1   RebarMatL=A706   RebarMatC=A706   ReinfConfig=Rectangular   LatReinf=Ties   Cover=0.05   NumBars3Dir=2   NumBars2Dir=2   BarSizeL=12d   BarSizeC=10d   SpacingC=0.1   NumCBars2=2   NumCBars3=2   ReinfType=Design
   SectionName=LB   RebarMatL=A706   RebarMatC=A706   ReinfConfig=Rectangular   LatReinf=Ties   Cover=0.05   NumBars3Dir=2   NumBars2Dir=2   BarSizeL=12d   BarSizeC=10d   SpacingC=0.1   NumCBars2=2   NumCBars3=2   ReinfType=Design
   SectionName=TB   RebarMatL=A706   RebarMatC=A706   ReinfConfig=Rectangular   LatReinf=Ties   Cover=0.05   NumBars3Dir=2   NumBars2Dir=2   BarSizeL=12d   BarSizeC=10d   SpacingC=0.1   NumCBars2=2   NumCBars3=2   ReinfType=Design
 
TABLE:  "FRAME SECTION PROPERTIES 13 - TIME DEPENDENT"
   SectionName=EB   TypeSize=Auto   AutoSFSize=1
   SectionName=EB-1   TypeSize=Auto   AutoSFSize=1
   SectionName=LB   TypeSize=Auto   AutoSFSize=1
   SectionName=Piles   TypeSize=Auto   AutoSFSize=1
   SectionName=TB   TypeSize=Auto   AutoSFSize=1
 
TABLE:  "FUNCTION - PLOT FUNCTIONS"
   PlotFunc="Input Energy"   Type=Energy   Component=Input   Mode=All
 
TABLE:  "FUNCTION - POWER SPECTRAL DENSITY - USER"
   Name=UNIFPSD   Frequency=0   Value=1
   Name=UNIFPSD   Frequency=1   Value=1
 
TABLE:  "FUNCTION - RESPONSE SPECTRUM - USER"
   Name=UNIFRS   Period=0   Accel=1   FuncDamp=0.05
   Name=UNIFRS   Period=1   Accel=1
 
TABLE:  "FUNCTION - STEADY STATE - USER"
   Name=UNIFSS   Frequency=0   Value=1
   Name=UNIFSS   Frequency=1   Value=1
 
TABLE:  "FUNCTION - TIME HISTORY - USER"
   Name=RAMPTH   Time=0   Value=0
   Name=RAMPTH   Time=1   Value=1
   Name=RAMPTH   Time=4   Value=1
   Name=UNIFTH   Time=0   Value=1
   Name=UNIFTH   Time=1   Value=1
 
TABLE:  "GRID LINES"
   CoordSys=GLOBAL   AxisDir=X   GridID=A   XRYZCoord=-10   LineType=Primary   LineColor=Gray8Dark   Visible=Yes   BubbleLoc=End   AllVisible=Yes   BubbleSize=0.9375
   CoordSys=GLOBAL   AxisDir=X   GridID=B   XRYZCoord=-9   LineType=Primary   LineColor=Gray8Dark   Visible=Yes   BubbleLoc=End
   CoordSys=GLOBAL   AxisDir=X   GridID=C   XRYZCoord=-4.5   LineType=Primary   LineColor=Gray8Dark   Visible=Yes   BubbleLoc=End
   CoordSys=GLOBAL   AxisDir=X   GridID=D   XRYZCoord=0   LineType=Primary   LineColor=Gray8Dark   Visible=Yes   BubbleLoc=End
   CoordSys=GLOBAL   AxisDir=X   GridID=E   XRYZCoord=4.5   LineType=Primary   LineColor=Gray8Dark   Visible=Yes   BubbleLoc=End
   CoordSys=GLOBAL   AxisDir=X   GridID=F   XRYZCoord=9   LineType=Primary   LineColor=Gray8Dark   Visible=Yes   BubbleLoc=End
   CoordSys=GLOBAL   AxisDir=X   GridID=G   XRYZCoord=10   LineType=Primary   LineColor=Gray8Dark   Visible=Yes   BubbleLoc=End
   CoordSys=GLOBAL   AxisDir=Y   GridID=1   XRYZCoord=-5.2   LineType=Primary   LineColor=Gray8Dark   Visible=Yes   BubbleLoc=Start
   CoordSys=GLOBAL   AxisDir=Y   GridID=2   XRYZCoord=-4.2   LineType=Primary   LineColor=Gray8Dark   Visible=Yes   BubbleLoc=Start
   CoordSys=GLOBAL   AxisDir=Y   GridID=3   XRYZCoord=0   LineType=Primary   LineColor=Gray8Dark   Visible=Yes   BubbleLoc=Start
   CoordSys=GLOBAL   AxisDir=Y   GridID=4   XRYZCoord=4.2   LineType=Primary   LineColor=Gray8Dark   Visible=Yes   BubbleLoc=Start
   CoordSys=GLOBAL   AxisDir=Y   GridID=5   XRYZCoord=4.8   LineType=Primary   LineColor=Gray8Dark   Visible=Yes   BubbleLoc=Start
   CoordSys=GLOBAL   AxisDir=Z   GridID=Z1   XRYZCoord=0   LineType=Primary   LineColor=Gray8Dark   Visible=Yes   BubbleLoc=End
   CoordSys=GLOBAL   AxisDir=Z   GridID=Z2   XRYZCoord=13   LineType=Primary   LineColor=Gray8Dark   Visible=Yes   BubbleLoc=End
 
TABLE:  "GROUPS 1 - DEFINITIONS"
   GroupName=ALL   Selection=Yes   SectionCut=Yes   Steel=Yes   Concrete=Yes   Aluminum=Yes   ColdFormed=Yes   Stage=Yes   Bridge=Yes   AutoSeismic=No   AutoWind=No   SelDesSteel=No   SelDesAlum=No   SelDesCold=No   MassWeight=Yes   Color=Red
   GroupName=Pile   Selection=Yes   SectionCut=Yes   Steel=Yes   Concrete=Yes   Aluminum=Yes   ColdFormed=Yes   Stage=Yes   Bridge=Yes   AutoSeismic=No   AutoWind=No   SelDesSteel=No   SelDesAlum=No   SelDesCold=No   MassWeight=Yes   Color=Gray8Dark
   GroupName=DN   Selection=Yes   SectionCut=Yes   Steel=Yes   Concrete=Yes   Aluminum=Yes   ColdFormed=Yes   Stage=Yes   Bridge=Yes   AutoSeismic=No   AutoWind=No   SelDesSteel=No   SelDesAlum=No   SelDesCold=No   MassWeight=Yes   Color=Yellow
   GroupName=Pile_Toe   Selection=Yes   SectionCut=Yes   Steel=Yes   Concrete=Yes   Aluminum=Yes   ColdFormed=Yes   Stage=Yes   Bridge=Yes   AutoSeismic=No   AutoWind=No   SelDesSteel=No   SelDesAlum=No   SelDesCold=No   MassWeight=Yes   Color=Green
   GroupName=Pile_Bend   Selection=Yes   SectionCut=Yes   Steel=Yes   Concrete=Yes   Aluminum=Yes   ColdFormed=Yes   Stage=Yes   Bridge=Yes   AutoSeismic=No   AutoWind=No   SelDesSteel=No   SelDesAlum=No   SelDesCold=No   MassWeight=Yes   Color=Cyan
   GroupName=Beam   Selection=Yes   SectionCut=Yes   Steel=Yes   Concrete=Yes   Aluminum=Yes   ColdFormed=Yes   Stage=Yes   Bridge=Yes   AutoSeismic=No   AutoWind=No   SelDesSteel=No   SelDesAlum=No   SelDesCold=No   MassWeight=Yes   Color=Blue
   GroupName=Piles   Selection=Yes   SectionCut=Yes   Steel=Yes   Concrete=Yes   Aluminum=Yes   ColdFormed=Yes   Stage=Yes   Bridge=Yes   AutoSeismic=No   AutoWind=No   SelDesSteel=No   SelDesAlum=No   SelDesCold=No   MassWeight=Yes   Color=Red
   GroupName=Beams   Selection=Yes   SectionCut=Yes   Steel=Yes   Concrete=Yes   Aluminum=Yes   ColdFormed=Yes   Stage=Yes   Bridge=Yes   AutoSeismic=No   AutoWind=No   SelDesSteel=No   SelDesAlum=No   SelDesCold=No   MassWeight=Yes   Color=Magenta
 
TABLE:  "GROUPS 2 - ASSIGNMENTS"
 
TABLE:  "JOINT COORDINATES"
   Joint=59673   CoordSys=GLOBAL   CoordType=Cartesian   XorR=-8.85   Y=-5   Z=0   SpecialJt=No   GUID=d10d2e1d-3375-44ea-ae08-4dba611cde7e
   Joint=59674   CoordSys=GLOBAL   CoordType=Cartesian   XorR=-8.85   Y=-2.75   Z=0   SpecialJt=No   GUID=0f5e0ccc-49ba-4997-8cc3-bd37e89cc289
   Joint=59675   CoordSys=GLOBAL   CoordType=Cartesian   XorR=-2.95   Y=-5   Z=0   SpecialJt=No   GUID=c4afbe0d-ccdb-4472-8bd5-c1d35f7b717d
   Joint=59676   CoordSys=GLOBAL   CoordType=Cartesian   XorR=-2.95   Y=-2.75   Z=0   SpecialJt=No   GUID=d5d0c814-1722-4322-ba2a-4cc18a9ea73f
   Joint=59677   CoordSys=GLOBAL   CoordType=Cartesian   XorR=2.95   Y=-5   Z=0   SpecialJt=No   GUID=cac206cc-e54b-4278-93a4-d679d8471160
   Joint=59678   CoordSys=GLOBAL   CoordType=Cartesian   XorR=2.95   Y=-2.75   Z=0   SpecialJt=No   GUID=cead78d7-1785-4329-a12d-f2c715806eab
   Joint=59679   CoordSys=GLOBAL   CoordType=Cartesian   XorR=8.85   Y=-5   Z=0   SpecialJt=No   GUID=1151abb9-ee71-4aa2-905d-ec3a2dda7030
   Joint=59680   CoordSys=GLOBAL   CoordType=Cartesian   XorR=8.85   Y=-2.75   Z=0   SpecialJt=No   GUID=289e1b45-1a20-48c1-8945-094e932a3838
   Joint=59681   CoordSys=GLOBAL   CoordType=Cartesian   XorR=-8.85   Y=2.75   Z=0   SpecialJt=No   GUID=0ede112f-8480-44fc-a193-2b615d41e368
   Joint=59682   CoordSys=GLOBAL   CoordType=Cartesian   XorR=-2.95   Y=2.75   Z=0   SpecialJt=No   GUID=aa6e3531-4a02-4d97-8804-1dc359fe9c8b
   Joint=59683   CoordSys=GLOBAL   CoordType=Cartesian   XorR=2.95   Y=2.75   Z=0   SpecialJt=No   GUID=ffd667bc-d51b-4f26-8b05-12213607cc2a
   Joint=59684   CoordSys=GLOBAL   CoordType=Cartesian   XorR=8.85   Y=2.75   Z=0   SpecialJt=No   GUID=aff16ee6-f693-4197-b104-4203dc9dcac0
   Joint=59685   CoordSys=GLOBAL   CoordType=Cartesian   XorR=-8.85   Y=5   Z=0   SpecialJt=No   GUID=1c09db2c-de91-4b35-a745-305d91256ab4
   Joint=59686   CoordSys=GLOBAL   CoordType=Cartesian   XorR=-2.95   Y=5   Z=0   SpecialJt=No   GUID=deacdc93-a0bb-46d7-b0d6-971c99be4341
   Joint=59687   CoordSys=GLOBAL   CoordType=Cartesian   XorR=2.95   Y=5   Z=0   SpecialJt=No   GUID=99f30f56-22e5-4cba-b5d2-4b82af6ce63b
   Joint=59688   CoordSys=GLOBAL   CoordType=Cartesian   XorR=8.85   Y=5   Z=0   SpecialJt=No   GUID=e3a9e028-47f8-42e7-94a7-6500fc47b71a
   Joint=59689   CoordSys=GLOBAL   CoordType=Cartesian   XorR=-10   Y=-2.75   Z=0   SpecialJt=No   GUID=92debc7d-821b-40e9-bf2a-283102e86111
   Joint=59690   CoordSys=GLOBAL   CoordType=Cartesian   XorR=-10   Y=2.75   Z=0   SpecialJt=No   GUID=b624ffab-e618-4f3c-b862-11142b7bf8f5
   Joint=59691   CoordSys=GLOBAL   CoordType=Cartesian   XorR=10   Y=-2.75   Z=0   SpecialJt=No   GUID=3ea99a87-a9b9-40e2-8a52-d90b07bfb643
   Joint=59692   CoordSys=GLOBAL   CoordType=Cartesian   XorR=10   Y=2.75   Z=0   SpecialJt=No   GUID=077b73e0-7ff7-4a2c-b3f2-9982333a575d
   Joint=59693   CoordSys=GLOBAL   CoordType=Cartesian   XorR=-8.85   Y=-2.75   Z=-3   SpecialJt=No   GUID=d816dc06-6c8a-48d3-8c22-65a68166bc78
   Joint=59694   CoordSys=GLOBAL   CoordType=Cartesian   XorR=-8.85   Y=-2.75   Z=-13.4180229476075   SpecialJt=No   GUID=cee3bd0e-2843-49dc-9c57-484ee33bb52c
   Joint=59695   CoordSys=GLOBAL   CoordType=Cartesian   XorR=-8.85   Y=-2.75   Z=-38   SpecialJt=No   GUID=1289e998-62b1-4913-9a9e-27f52a86ded3
   Joint=59696   CoordSys=GLOBAL   CoordType=Cartesian   XorR=-2.95   Y=-2.75   Z=-3   SpecialJt=No   GUID=10ab4f54-0e4e-4c5b-944c-a999d3bc3984
   Joint=59697   CoordSys=GLOBAL   CoordType=Cartesian   XorR=-2.95   Y=-2.75   Z=-13.4180229476075   SpecialJt=No   GUID=711120e0-13e6-451b-8be8-6e4ec6e9a8aa
   Joint=59698   CoordSys=GLOBAL   CoordType=Cartesian   XorR=-2.95   Y=-2.75   Z=-38   SpecialJt=No   GUID=02bf9682-864d-46c8-af13-238615a1e571
   Joint=59699   CoordSys=GLOBAL   CoordType=Cartesian   XorR=2.95   Y=-2.75   Z=-3   SpecialJt=No   GUID=51540c96-697e-4be3-aa24-44a64728e135
   Joint=59700   CoordSys=GLOBAL   CoordType=Cartesian   XorR=2.95   Y=-2.75   Z=-13.4180229476075   SpecialJt=No   GUID=8acbf4dc-beb3-439b-81ac-0221cbd327b4
   Joint=59701   CoordSys=GLOBAL   CoordType=Cartesian   XorR=2.95   Y=-2.75   Z=-38   SpecialJt=No   GUID=f06666c4-0650-4b01-89f2-a0659a321f52
   Joint=59702   CoordSys=GLOBAL   CoordType=Cartesian   XorR=8.85   Y=-2.75   Z=-3   SpecialJt=No   GUID=4b55a61e-29ee-4950-af1d-612d7c25be9c
   Joint=59703   CoordSys=GLOBAL   CoordType=Cartesian   XorR=8.85   Y=-2.75   Z=-13.4180229476075   SpecialJt=No   GUID=74d2e790-5d1b-4238-9b7f-3aba6cd23567
   Joint=59704   CoordSys=GLOBAL   CoordType=Cartesian   XorR=8.85   Y=-2.75   Z=-38   SpecialJt=No   GUID=4636857a-f477-4709-bd3d-ae25d042ec33
   Joint=59705   CoordSys=GLOBAL   CoordType=Cartesian   XorR=-8.85   Y=2.75   Z=-13.4180229476075   SpecialJt=No   GUID=71810416-554e-4f9a-967f-5223cfbf159c
   Joint=59706   CoordSys=GLOBAL   CoordType=Cartesian   XorR=-8.85   Y=2.75   Z=-38   SpecialJt=No   GUID=f54fbeaa-24a4-4cf3-9992-b88a098e4cbe
   Joint=59707   CoordSys=GLOBAL   CoordType=Cartesian   XorR=-2.95   Y=2.75   Z=-13.4180229476075   SpecialJt=No   GUID=74752405-9b20-4005-90f2-0fe9696216a6
   Joint=59708   CoordSys=GLOBAL   CoordType=Cartesian   XorR=-2.95   Y=2.75   Z=-38   SpecialJt=No   GUID=580f75c6-7717-4077-9db5-ebc7689c1e0c
   Joint=59709   CoordSys=GLOBAL   CoordType=Cartesian   XorR=2.95   Y=2.75   Z=-13.4180229476075   SpecialJt=No   GUID=86ce6ce3-c404-431b-b205-9e96115eeda8
   Joint=59710   CoordSys=GLOBAL   CoordType=Cartesian   XorR=2.95   Y=2.75   Z=-38   SpecialJt=No   GUID=af80369a-0cc1-465d-b94b-7f263b1e1c18
   Joint=59711   CoordSys=GLOBAL   CoordType=Cartesian   XorR=8.85   Y=2.75   Z=-13.4180229476075   SpecialJt=No   GUID=4a192b6d-dfc6-45e6-bd61-861afcb65c15
   Joint=59712   CoordSys=GLOBAL   CoordType=Cartesian   XorR=8.85   Y=2.75   Z=-38   SpecialJt=No   GUID=82a5504b-943c-40b7-8029-3b30a3c3b8de
   Joint=59713   CoordSys=GLOBAL   CoordType=Cartesian   XorR=-10   Y=-5   Z=0   SpecialJt=No   GUID=561ca101-641f-4aec-9f9e-0dced7ac761e
   Joint=59714   CoordSys=GLOBAL   CoordType=Cartesian   XorR=10   Y=-5   Z=0   SpecialJt=No   GUID=ea855c43-d246-46ad-b926-1606f523c7ef
   Joint=59715   CoordSys=GLOBAL   CoordType=Cartesian   XorR=-10   Y=5   Z=0   SpecialJt=No   GUID=aeb6d9a8-b3b9-460e-a13a-1bc145bb7cfc
   Joint=59716   CoordSys=GLOBAL   CoordType=Cartesian   XorR=10   Y=5   Z=0   SpecialJt=No   GUID=82f86c0c-0e32-4ed1-ad22-a7f2da7ae1e2
 
TABLE:  "JOINT PATTERN DEFINITIONS"
   Pattern=Default
 
TABLE:  "JOINT RESTRAINT ASSIGNMENTS"
   Joint=59694   U1=Yes   U2=Yes   U3=No   R1=Yes   R2=Yes   R3=Yes
   Joint=59695   U1=No   U2=No   U3=Yes   R1=No   R2=No   R3=No
   Joint=59697   U1=Yes   U2=Yes   U3=No   R1=Yes   R2=Yes   R3=Yes
   Joint=59698   U1=No   U2=No   U3=Yes   R1=No   R2=No   R3=No
   Joint=59700   U1=Yes   U2=Yes   U3=No   R1=Yes   R2=Yes   R3=Yes
   Joint=59701   U1=No   U2=No   U3=Yes   R1=No   R2=No   R3=No
   Joint=59703   U1=Yes   U2=Yes   U3=No   R1=Yes   R2=Yes   R3=Yes
   Joint=59704   U1=No   U2=No   U3=Yes   R1=No   R2=No   R3=No
   Joint=59705   U1=Yes   U2=Yes   U3=No   R1=Yes   R2=Yes   R3=Yes
   Joint=59706   U1=No   U2=No   U3=Yes   R1=No   R2=No   R3=No
   Joint=59707   U1=Yes   U2=Yes   U3=No   R1=Yes   R2=Yes   R3=Yes
   Joint=59708   U1=No   U2=No   U3=Yes   R1=No   R2=No   R3=No
   Joint=59709   U1=Yes   U2=Yes   U3=No   R1=Yes   R2=Yes   R3=Yes
   Joint=59710   U1=No   U2=No   U3=Yes   R1=No   R2=No   R3=No
   Joint=59711   U1=Yes   U2=Yes   U3=No   R1=Yes   R2=Yes   R3=Yes
   Joint=59712   U1=No   U2=No   U3=Yes   R1=No   R2=No   R3=No
 
TABLE:  "LOAD CASE DEFINITIONS"
   Case=DEAD   Type=LinStatic   InitialCond=Zero   DesTypeOpt="Prog Det"   DesignType=Dead   DesActOpt="Prog Det"   DesignAct=Non-Composite   AutoType=None   RunCase=Yes
   Case=MODAL   Type=LinModal   InitialCond=Zero   DesTypeOpt="Prog Det"   DesignType=Other   DesActOpt="Prog Det"   DesignAct=Other   AutoType=None   RunCase=Yes
   Case=LL   Type=LinStatic   InitialCond=Zero   DesTypeOpt="Prog Det"   DesignType=Live   DesActOpt="Prog Det"   DesignAct="Short-Term Composite"   AutoType=None   RunCase=Yes
 
TABLE:  "LOAD PATTERN DEFINITIONS"
   LoadPat=DEAD   DesignType=Dead   SelfWtMult=1
   LoadPat=LL   DesignType=Live   SelfWtMult=0
 
TABLE:  "MASS SOURCE"
   MassSource=MSSSRC1   Elements=Yes   Masses=Yes   Loads=No   IsDefault=Yes
 
TABLE:  "MATERIAL PROPERTIES 01 - GENERAL"
   Material=A706   Type=Rebar   SymType=Uniaxial   TempDepend=No   Color=Gray8Dark   GUID=30185aab-1311-4f4b-9ffe-ddad707d22d9   Notes="ASTM A706 added 8/23/2025 4:27:57 PM"
   Material=BTCT   Type=Concrete   SymType=Isotropic   TempDepend=No   Color=Blue   Notes="Concrete added 24-Feb-23 16:30:01"
   Material=BTCTCOC   Type=Concrete   SymType=Isotropic   TempDepend=No   Color=Blue   Notes="Concrete added 24-Feb-23 16:30:01"
   Material=Steel   Type=Steel   SymType=Isotropic   TempDepend=No   Color=Magenta   GUID=2f952889-4898-4964-97a4-5fb5c5008d33   Notes="Steel added 8/24/2025 2:51:43 PM"
   Material=Tendon   Type=Tendon   SymType=Uniaxial   TempDepend=No   Color=Yellow   GUID=7dfcd093-823e-4b3a-b96f-35d5bcaf456f   Notes="Tendon added 8/24/2025 2:51:43 PM"
 
TABLE:  "MATERIAL PROPERTIES 02 - BASIC MECHANICAL PROPERTIES"
   Material=A706   UnitWeight=7.84904757236607   UnitMass=0.800380070686609   E1=20389019.1580383   A1=1.16999994421006E-05
   Material=BTCT   UnitWeight=2.40276966501002   UnitMass=0.245014307353044   E1=2900000   G12=1208333.33333333   U12=0.2   A1=9.9E-06
   Material=BTCTCOC   UnitWeight=2.40276966501002   UnitMass=0.245014307353044   E1=3800000000   G12=1583333333.33333   U12=0.2   A1=9.9E-06
   Material=Steel   UnitWeight=7.84904757236607   UnitMass=0.800380070686609   E1=20389019.1580383   G12=7841930.44539935   U12=0.3   A1=1.17E-05
   Material=Tendon   UnitWeight=7.84904757236607   UnitMass=0.800380070686609   E1=20037484.3449687   A1=1.16999994421006E-05
 
TABLE:  "MATERIAL PROPERTIES 03A - STEEL DATA"
   Material=Steel   Fy=35153.4813069626   Fu=45699.5256990514   EffFy=38668.8294376589   EffFu=50269.4782689565   SSCurveOpt=Simple   SSHysType=Kinematic   SHard=0.015   SMax=0.11   SRup=0.17   FinalSlope=-0.1   CoupModType="Von Mises"
 
TABLE:  "MATERIAL PROPERTIES 03B - CONCRETE DATA"
   Material=BTCT   Fc=2812.27850455701   eFc=2812.27850455701   LtWtConc=No   SSCurveOpt=Mander   SSHysType=Takeda   SFc=0.002   SCap=0.005   FinalSlope=-0.1   FAngle=0   DAngle=0   CoupModType="Modified Darwin-Pecknold"
   Material=BTCTCOC   Fc=2812.27850455701   eFc=2812.27850455701   LtWtConc=No   SSCurveOpt=Mander   SSHysType=Takeda   SFc=0.002   SCap=0.005   FinalSlope=-0.1   FAngle=0   DAngle=0   CoupModType="Modified Darwin-Pecknold"
 
TABLE:  "MATERIAL PROPERTIES 03E - REBAR DATA"
   Material=A706   Fy=42184.1775683551   Fu=56245.5700911402   EffFy=46402.5953251907   EffFu=61870.1271002542   SSCurveOpt=Simple   SSHysType=Kinematic   SHard=0.011   SCap=0.11   FinalSlope=-0.1   UseCTDef=No   CoupModType="Von Mises"
 
TABLE:  "MATERIAL PROPERTIES 03F - TENDON DATA"
   Material=Tendon   Fy=172322.365366731   Fu=189828.799057598   SSCurveOpt="270 ksi"   SSHysType=Kinematic   FinalSlope=-0.1   CoupModType="Von Mises"
 
TABLE:  "MATERIAL PROPERTIES 03J - COUPLED NONLINEAR VON MISES DATA"
   Material=A706   YieldStress=46402.5953251907   LinIsoHard=No   LinKinHard=No   NLIsoSaHard=No
   Material=Steel   YieldStress=38668.8294376589   LinIsoHard=No   LinKinHard=No   NLIsoSaHard=No
   Material=Tendon   YieldStress=172322.365366731   LinIsoHard=No   LinKinHard=No   NLIsoSaHard=No
 
TABLE:  "MATERIAL PROPERTIES 06 - DAMPING PARAMETERS"
   Material=A706   ModalRatio=0   VisMass=0   VisStiff=0   HysMass=0   HysStiff=0
   Material=BTCT   ModalRatio=0   VisMass=0   VisStiff=0   HysMass=0   HysStiff=0
   Material=BTCTCOC   ModalRatio=0   VisMass=0   VisStiff=0   HysMass=0   HysStiff=0
   Material=Steel   ModalRatio=0   VisMass=0   VisStiff=0   HysMass=0   HysStiff=0
   Material=Tendon   ModalRatio=0   VisMass=0   VisStiff=0   HysMass=0   HysStiff=0
 
TABLE:  "MATERIAL PROPERTIES 09 - ACCEPTANCE CRITERIA"
   Material=A706   IOTens=0.01   LSTens=0.02   CPTens=0.05   IOComp=-0.005   LSComp=-0.01   CPComp=-0.02
   Material=BTCT   IOTens=0.01   LSTens=0.02   CPTens=0.05   IOComp=-0.003   LSComp=-0.006   CPComp=-0.015   IgnoreTens=Yes
   Material=BTCTCOC   IOTens=0.01   LSTens=0.02   CPTens=0.05   IOComp=-0.003   LSComp=-0.006   CPComp=-0.015   IgnoreTens=Yes
   Material=Steel   IOTens=0.01   LSTens=0.02   CPTens=0.05   IOComp=-0.005   LSComp=-0.01   CPComp=-0.02
   Material=Tendon   IOTens=0.015   LSTens=0.023   CPTens=0.03   IOComp=-0.015   LSComp=-0.023   CPComp=-0.03
 
TABLE:  "OPTIONS - COLORS - DISPLAY"
   DeviceType=Screen   Points=Blue   LinesFrame=Blue   LinesFrmDL=Blue   LinesCable=Green   LinesTendon=Green   SpringLinks=Green   Restraints=Green   Releases=Green   Axes=Cyan   Text=Black   ShadowLines=Gray8Dark   GuideLines=Gray8Dark _
        Highlight=Red   Selection=10504778   AreaFillBot=Red   AreaFillTop=16744703   AreaFillSd=Red   AreaEdge=DarkRed   SolidF1=Red   SolidF2=Blue   SolidF3=Green   SolidF4=Yellow   SolidF5=White   SolidF6=Cyan   SolidEdge=DarkRed _
        Floor=Gray4   Background=White   BGLowLeft=White   BGLowRight=White   BGUpRight=White   Darkness=0.5
   DeviceType=Printer   Points=Gray8Dark   LinesFrame=Black   LinesFrmDL=Gray4   LinesCable=Black   LinesTendon=Black   SpringLinks=Gray8Dark   Restraints=Gray8Dark   Releases=Gray4   Axes=Black   Text=Black   ShadowLines=Gray4 _
        GuideLines=Gray4   Highlight=Black   Selection=Black   AreaFillBot=Gray4   AreaFillTop=Gray8Dark   AreaFillSd=Gray4   AreaEdge=Black   SolidF1=Gray1Light   SolidF2=Gray2   SolidF3=Gray3   SolidF4=Gray4   SolidF5=Gray5 _
        SolidF6=Gray6   SolidEdge=Black   Floor=Gray4   Background=White   BGLowLeft=White   BGLowRight=White   BGUpRight=White   Darkness=0.5
   DeviceType="Color Printer"   Points=Blue   LinesFrame=Blue   LinesFrmDL=Blue   LinesCable=Green   LinesTendon=Green   SpringLinks=Green   Restraints=Green   Releases=Green   Axes=Cyan   Text=Black   ShadowLines=Gray8Dark _
        GuideLines=Gray8Dark   Highlight=Red   Selection=10504778   AreaFillBot=Red   AreaFillTop=16744703   AreaFillSd=Red   AreaEdge=DarkRed   SolidF1=Red   SolidF2=Blue   SolidF3=Green   SolidF4=Yellow   SolidF5=White   SolidF6=Cyan _
        SolidEdge=DarkRed   Floor=Gray4   Background=White   BGLowLeft=White   BGLowRight=White   BGUpRight=White   Darkness=0.5
 
TABLE:  "OPTIONS - COLORS - OUTPUT"
   DeviceType=Screen   Contour1=13107400   Contour2=6553828   Contour3=Red   Contour4=16639   Contour5=Orange   Contour6=43775   Contour7=54527   Contour8=Yellow   Contour9=65408   Contour10=Green   Contour11=8453888   Contour12=Cyan _
        Contour13=16755200   Contour14=16733440   Contour15=Blue   Transpare=0.5   Ratio1=Cyan   Ratio2=Green   Ratio3=Yellow   Ratio4=Orange   Ratio5=Red   RatioNotD=Gray4   RatioNotC=Red   RatioVal1=0.5   RatioVal2=0.7   RatioVal3=0.9 _
        RatioVal4=1   DFillPos=Blue   DFillNeg=Red   DFillRPos=Green   DFillRNeg=Green
   DeviceType=Printer   Contour1=Black   Contour2=3158064   Contour3=4210752   Contour4=5263440   Contour5=6316128   Contour6=7368816   Contour7=Gray8Dark   Contour8=Gray7   Contour9=Gray6   Contour10=Gray5   Contour11=Gray4 _
        Contour12=Gray3   Contour13=Gray2   Contour14=Gray1Light   Contour15=White   Transpare=0   Ratio1=Gray2   Ratio2=Gray4   Ratio3=Gray8Dark   Ratio4=4210752   Ratio5=Black   RatioNotD=Gray4   RatioNotC=Black   RatioVal1=0.5 _
        RatioVal2=0.7   RatioVal3=0.9   RatioVal4=1   DFillPos=Gray8Dark   DFillNeg=Gray8Dark   DFillRPos=4210752   DFillRNeg=4210752
   DeviceType="Color Printer"   Contour1=13107400   Contour2=6553828   Contour3=Red   Contour4=16639   Contour5=Orange   Contour6=43775   Contour7=54527   Contour8=Yellow   Contour9=65408   Contour10=Green   Contour11=8453888 _
        Contour12=Cyan   Contour13=16755200   Contour14=16733440   Contour15=Blue   Transpare=0   Ratio1=Cyan   Ratio2=Green   Ratio3=Yellow   Ratio4=Orange   Ratio5=Red   RatioNotD=Gray4   RatioNotC=Red   RatioVal1=0.5   RatioVal2=0.7 _
        RatioVal3=0.9   RatioVal4=1   DFillPos=Blue   DFillNeg=Red   DFillRPos=Green   DFillRNeg=Green
 
TABLE:  "OVERWRITES - CONCRETE DESIGN - CSA-A233-14"
   Frame=65554   DesignSect="Program Determined"   FrameType="Program Determined"   RLLF=0   XLMajor=0   XLMinor=0   XKMajor=0   XKMinor=0   CmMajor=0   CmMinor=0   DbMajor=0   DbMinor=0   DsMajor=0   DsMinor=0   Rd=0   Ro=0   MaxAggSize=0
   Frame=65555   DesignSect="Program Determined"   FrameType="Program Determined"   RLLF=0   XLMajor=0   XLMinor=0   XKMajor=0   XKMinor=0   CmMajor=0   CmMinor=0   DbMajor=0   DbMinor=0   DsMajor=0   DsMinor=0   Rd=0   Ro=0   MaxAggSize=0
   Frame=65556   DesignSect="Program Determined"   FrameType="Program Determined"   RLLF=0   XLMajor=0   XLMinor=0   XKMajor=0   XKMinor=0   CmMajor=0   CmMinor=0   DbMajor=0   DbMinor=0   DsMajor=0   DsMinor=0   Rd=0   Ro=0   MaxAggSize=0
   Frame=65557   DesignSect="Program Determined"   FrameType="Program Determined"   RLLF=0   XLMajor=0   XLMinor=0   XKMajor=0   XKMinor=0   CmMajor=0   CmMinor=0   DbMajor=0   DbMinor=0   DsMajor=0   DsMinor=0   Rd=0   Ro=0   MaxAggSize=0
   Frame=65558   DesignSect="Program Determined"   FrameType="Program Determined"   RLLF=0   XLMajor=0   XLMinor=0   XKMajor=0   XKMinor=0   CmMajor=0   CmMinor=0   DbMajor=0   DbMinor=0   DsMajor=0   DsMinor=0   Rd=0   Ro=0   MaxAggSize=0
   Frame=65559   DesignSect="Program Determined"   FrameType="Program Determined"   RLLF=0   XLMajor=0   XLMinor=0   XKMajor=0   XKMinor=0   CmMajor=0   CmMinor=0   DbMajor=0   DbMinor=0   DsMajor=0   DsMinor=0   Rd=0   Ro=0   MaxAggSize=0
   Frame=65560   DesignSect="Program Determined"   FrameType="Program Determined"   RLLF=0   XLMajor=0   XLMinor=0   XKMajor=0   XKMinor=0   CmMajor=0   CmMinor=0   DbMajor=0   DbMinor=0   DsMajor=0   DsMinor=0   Rd=0   Ro=0   MaxAggSize=0
   Frame=65561   DesignSect="Program Determined"   FrameType="Program Determined"   RLLF=0   XLMajor=0   XLMinor=0   XKMajor=0   XKMinor=0   CmMajor=0   CmMinor=0   DbMajor=0   DbMinor=0   DsMajor=0   DsMinor=0   Rd=0   Ro=0   MaxAggSize=0
   Frame=65562   DesignSect="Program Determined"   FrameType="Program Determined"   RLLF=0   XLMajor=0   XLMinor=0   XKMajor=0   XKMinor=0   CmMajor=0   CmMinor=0   DbMajor=0   DbMinor=0   DsMajor=0   DsMinor=0   Rd=0   Ro=0   MaxAggSize=0
   Frame=65563   DesignSect="Program Determined"   FrameType="Program Determined"   RLLF=0   XLMajor=0   XLMinor=0   XKMajor=0   XKMinor=0   CmMajor=0   CmMinor=0   DbMajor=0   DbMinor=0   DsMajor=0   DsMinor=0   Rd=0   Ro=0   MaxAggSize=0
   Frame=65564   DesignSect="Program Determined"   FrameType="Program Determined"   RLLF=0   XLMajor=0   XLMinor=0   XKMajor=0   XKMinor=0   CmMajor=0   CmMinor=0   DbMajor=0   DbMinor=0   DsMajor=0   DsMinor=0   Rd=0   Ro=0   MaxAggSize=0
   Frame=65565   DesignSect="Program Determined"   FrameType="Program Determined"   RLLF=0   XLMajor=0   XLMinor=0   XKMajor=0   XKMinor=0   CmMajor=0   CmMinor=0   DbMajor=0   DbMinor=0   DsMajor=0   DsMinor=0   Rd=0   Ro=0   MaxAggSize=0
   Frame=65566   DesignSect="Program Determined"   FrameType="Program Determined"   RLLF=0   XLMajor=0   XLMinor=0   XKMajor=0   XKMinor=0   CmMajor=0   CmMinor=0   DbMajor=0   DbMinor=0   DsMajor=0   DsMinor=0   Rd=0   Ro=0   MaxAggSize=0
   Frame=65567   DesignSect="Program Determined"   FrameType="Program Determined"   RLLF=0   XLMajor=0   XLMinor=0   XKMajor=0   XKMinor=0   CmMajor=0   CmMinor=0   DbMajor=0   DbMinor=0   DsMajor=0   DsMinor=0   Rd=0   Ro=0   MaxAggSize=0
   Frame=65568   DesignSect="Program Determined"   FrameType="Program Determined"   RLLF=0   XLMajor=0   XLMinor=0   XKMajor=0   XKMinor=0   CmMajor=0   CmMinor=0   DbMajor=0   DbMinor=0   DsMajor=0   DsMinor=0   Rd=0   Ro=0   MaxAggSize=0
   Frame=65569   DesignSect="Program Determined"   FrameType="Program Determined"   RLLF=0   XLMajor=0   XLMinor=0   XKMajor=0   XKMinor=0   CmMajor=0   CmMinor=0   DbMajor=0   DbMinor=0   DsMajor=0   DsMinor=0   Rd=0   Ro=0   MaxAggSize=0
   Frame=65570   DesignSect="Program Determined"   FrameType="Program Determined"   RLLF=0   XLMajor=0   XLMinor=0   XKMajor=0   XKMinor=0   CmMajor=0   CmMinor=0   DbMajor=0   DbMinor=0   DsMajor=0   DsMinor=0   Rd=0   Ro=0   MaxAggSize=0
   Frame=65571   DesignSect="Program Determined"   FrameType="Program Determined"   RLLF=0   XLMajor=0   XLMinor=0   XKMajor=0   XKMinor=0   CmMajor=0   CmMinor=0   DbMajor=0   DbMinor=0   DsMajor=0   DsMinor=0   Rd=0   Ro=0   MaxAggSize=0
   Frame=65572   DesignSect="Program Determined"   FrameType="Program Determined"   RLLF=0   XLMajor=0   XLMinor=0   XKMajor=0   XKMinor=0   CmMajor=0   CmMinor=0   DbMajor=0   DbMinor=0   DsMajor=0   DsMinor=0   Rd=0   Ro=0   MaxAggSize=0
   Frame=65573   DesignSect="Program Determined"   FrameType="Program Determined"   RLLF=0   XLMajor=0   XLMinor=0   XKMajor=0   XKMinor=0   CmMajor=0   CmMinor=0   DbMajor=0   DbMinor=0   DsMajor=0   DsMinor=0   Rd=0   Ro=0   MaxAggSize=0
# ... 9 like lines cut
 
TABLE:  "PREFERENCES - ALUMINUM DESIGN - AA 2015"
   THDesign=Envelopes   SRatioLimit=1   Provision=ASD   LatFact=1.33333333333333   UseLatFact=No   Bridge=No   OmegaTy=1.65   OmegaTr=1.95   OmegaC=1.65   OmegaBo=1.65   OmegaBr=1.95   OmegaVo=1.65   OmegaVr=1.95
 
TABLE:  "PREFERENCES - COLD FORMED DESIGN - AISI-ASD96"
   THDesign=Envelopes   FrameType="Braced Frame"   SRatioLimit=1   MaxIter=1   OmegaBS=1.67   OmegaBUS=1.67   OmegaBLTB=1.67   OmegaVS=1.67   OmegaVNS=1.5   OmegaT=1.67   OmegaC=1.8
 
TABLE:  "PREFERENCES - CONCRETE DESIGN - CSA-A233-14"
   THDesign=Envelopes   NumCurves=24   NumPoints=11   MinEccen=Yes   BCCDesign=Yes   CTorsion=Yes   PatLLF=0.75   UFLimit=0.95   PhiS=0.85   PhiC=0.65
 
TABLE:  "PREFERENCES - CONCRETE SHELL DESIGN - EUROCODE 2-2004"
   Country="CEN Default"   GammaS=1.15   GammaC=1.5   AlphaCC=1
 
TABLE:  "PREFERENCES - DIMENSIONAL"
   MergeTol=0.001   FineGrid=0.25   Nudge=0.25   SelectTol=3   SnapTol=12   SLineThick=1   PLineThick=4   MaxFont=8   MinFont=3   AutoZoom=10   ShrinkFact=70   TextFileLen=240
 
TABLE:  "PREFERENCES - STEEL DESIGN - AISC 360-10"
   THDesign=Envelopes   FrameType=SMF   PatLLF=0.75   SRatioLimit=0.95   MaxIter=1   SDC=D   SeisCode=No   SeisLoad=No   ImpFactor=1   SystemRho=1   SystemSds=0.5   SystemR=8   SystemCd=5.5   Omega0=3   Provision=LRFD _
        AMethod="Direct Analysis"   SOMethod="General 2nd Order"   SRMethod="Tau-b Fixed"   NLCoeff=0.002   PhiB=0.9   PhiC=0.9   PhiTY=0.9   PhiTF=0.75   PhiV=0.9   PhiVRolledI=1   PhiVT=0.9   PlugWeld=Yes   HSSWelding=ERW   HSSReduceT=No _
        CheckDefl=No   DLRat=120   SDLAndLLRat=120   LLRat=360   TotalRat=240   NetRat=240
 
TABLE:  "PROGRAM CONTROL"
   ProgramName=SAP2000   Version=24.0.0   CurrUnits="Tonf, m, C"   SteelCode="AISC 360-10"   ConcCode="CSA A23.3-14"   AlumCode="AA 2015"   ColdCode=AISI-ASD96   RegenHinge=Yes
 
TABLE:  "PROJECT INFORMATION"
   Item="Company Name"   Data=po
   Item="Client Name"
   Item="Project Name"
   Item="Project Number"
   Item="Model Name"
   Item="Model Description"
   Item="Revision Number"
   Item="Frame Type"
   Item=Engineer
   Item=Checker
   Item=Supervisor
   Item="Issue Code"
   Item="Design Code"
 
TABLE:  "REBAR SIZES"
   RebarID=#2   Area=3.2258E-05   Diameter=0.00635
   RebarID=#3   Area=7.09675996154547E-05   Diameter=0.009525
   RebarID=#4   Area=0.000129032001922727   Diameter=0.0127
   RebarID=#5   Area=0.000199999601538181   Diameter=0.015875
   RebarID=#6   Area=0.000283870398461819   Diameter=0.01905
   RebarID=#7   Area=0.000387096015381813   Diameter=0.022225
   RebarID=#8   Area=0.000509676413843632   Diameter=0.0254
   RebarID=#9   Area=0.00064516   Diameter=0.0286512005329132
   RebarID=#10   Area=0.00081935318769455   Diameter=0.0322579995155334
   RebarID=#11   Area=0.00100644956308365   Diameter=0.0358139991521835
   RebarID=#14   Area=0.00145161   Diameter=0.0430021989583969
   RebarID=#18   Area=0.00258064   Diameter=0.0573277992248535
   RebarID=10M   Area=0.000100000004162606   Diameter=0.0113000003604438
   RebarID=15M   Area=0.000200000008325212   Diameter=0.0160000002402959
   RebarID=20M   Area=0.000300000012487818   Diameter=0.0195000002928606
   RebarID=25M   Area=0.000500000020813031   Diameter=0.0252000011414055
   RebarID=30M   Area=0.000700000029138243   Diameter=0.0299000000675832
   RebarID=35M   Area=0.00100000004162606   Diameter=0.0357000012990997
   RebarID=45M   Area=0.00150000006243909   Diameter=0.0437000014192476
   RebarID=55M   Area=0.00250000010406515   Diameter=0.056400002372922
   RebarID=6d   Area=2.83000004150781E-05   Diameter=0.00600000009011096
   RebarID=8d   Area=5.03000013308514E-05   Diameter=0.00800000012014795
   RebarID=10d   Area=7.85000032676458E-05   Diameter=0.0100000001501849
   RebarID=12d   Area=0.000113000004703745   Diameter=0.0120000001802219
   RebarID=14d   Area=0.000154000006410413   Diameter=0.0140000002102589
   RebarID=16d   Area=0.000201000008366838   Diameter=0.0160000002402959
   RebarID=20d   Area=0.000314000013070583   Diameter=0.0200000003003699
   RebarID=25d   Area=0.000491000020438396   Diameter=0.0250000003754623
   RebarID=26d   Area=0.000531000022103439   Diameter=0.0260000003904808
   RebarID=28d   Area=0.000616000025641654   Diameter=0.0280000004205178
   RebarID=N12   Area=0.000113000004703745   Diameter=0.0120000001802219
   RebarID=N16   Area=0.000201000008366838   Diameter=0.0160000002402959
   RebarID=N20   Area=0.000314000013070583   Diameter=0.0200000003003699
   RebarID=N24   Area=0.00045200001881498   Diameter=0.0240000003604438
   RebarID=N28   Area=0.000616000025641654   Diameter=0.0280000004205178
   RebarID=N32   Area=0.000804000033467353   Diameter=0.0320000004805918
   RebarID=N36   Area=0.00102000004245858   Diameter=0.0360000005406658
 
TABLE:  "SOLID PROPERTY DEFINITIONS"
   SolidProp=Solid1   Material=BTCT   MatAngleA=0   MatAngleB=0   MatAngleC=0   InComp=Yes   Color=Gray8Dark
 
END TABLE DATA
