File D:\ResearchLab\02_Projects\02_Projects\Tap chi XD_SFOA\code\SOO_MPJ\MPJ_Sap\SOO_Cost_W03\MPJ_3.$2k was saved on m/d/yy at h:mm:ss
 
TABLE:  "ACTIVE DEGREES OF FREEDOM"
   UX=Yes   UY=Yes   UZ=Yes   RX=Yes   RY=Yes   RZ=Yes
 
TABLE:  "ANALYSIS OPTIONS"
   Solver=Advanced   SolverProc=Auto   Force32Bit=No   StiffCase=None   GeomMod=None   HingeOpt="In Elements"   NumAThreads=0   MaxFileSize=0   NumDThreads=0   NumRThreads=0   UseMMFiles="Program Determined"   AllowDiff=No
 
TABLE:  "AREA AUTO MESH ASSIGNMENTS"
   Area=19625   MeshType="Number of Elements"   MeshGroup=ALL   Number1=3   Number2=3   LocalEdge=No   LocalFace=No   SuppEdge=No   SuppFace=No   SubMesh=No
   Area=19626   MeshType="Number of Elements"   MeshGroup=ALL   Number1=3   Number2=3   LocalEdge=No   LocalFace=No   SuppEdge=No   SuppFace=No   SubMesh=No
   Area=19627   MeshType="Number of Elements"   MeshGroup=ALL   Number1=3   Number2=3   LocalEdge=No   LocalFace=No   SuppEdge=No   SuppFace=No   SubMesh=No
   Area=19628   MeshType="Number of Elements"   MeshGroup=ALL   Number1=3   Number2=3   LocalEdge=No   LocalFace=No   SuppEdge=No   SuppFace=No   SubMesh=No
   Area=19629   MeshType="Number of Elements"   MeshGroup=ALL   Number1=3   Number2=3   LocalEdge=No   LocalFace=No   SuppEdge=No   SuppFace=No   SubMesh=No
   Area=19630   MeshType="Number of Elements"   MeshGroup=ALL   Number1=3   Number2=3   LocalEdge=No   LocalFace=No   SuppEdge=No   SuppFace=No   SubMesh=No
   Area=19631   MeshType="Number of Elements"   MeshGroup=ALL   Number1=3   Number2=3   LocalEdge=No   LocalFace=No   SuppEdge=No   SuppFace=No   SubMesh=No
   Area=19632   MeshType="Number of Elements"   MeshGroup=ALL   Number1=3   Number2=3   LocalEdge=No   LocalFace=No   SuppEdge=No   SuppFace=No   SubMesh=No
   Area=19633   MeshType="Number of Elements"   MeshGroup=ALL   Number1=3   Number2=3   LocalEdge=No   LocalFace=No   SuppEdge=No   SuppFace=No   SubMesh=No
   Area=19634   MeshType="Number of Elements"   MeshGroup=ALL   Number1=3   Number2=3   LocalEdge=No   LocalFace=No   SuppEdge=No   SuppFace=No   SubMesh=No
   Area=19635   MeshType="Number of Elements"   MeshGroup=ALL   Number1=3   Number2=3   LocalEdge=No   LocalFace=No   SuppEdge=No   SuppFace=No   SubMesh=No
   Area=19636   MeshType="Number of Elements"   MeshGroup=ALL   Number1=3   Number2=3   LocalEdge=No   LocalFace=No   SuppEdge=No   SuppFace=No   SubMesh=No
   Area=19637   MeshType="Number of Elements"   MeshGroup=ALL   Number1=3   Number2=3   LocalEdge=No   LocalFace=No   SuppEdge=No   SuppFace=No   SubMesh=No
   Area=19638   MeshType="Number of Elements"   MeshGroup=ALL   Number1=3   Number2=3   LocalEdge=No   LocalFace=No   SuppEdge=No   SuppFace=No   SubMesh=No
   Area=19639   MeshType="Number of Elements"   MeshGroup=ALL   Number1=3   Number2=3   LocalEdge=No   LocalFace=No   SuppEdge=No   SuppFace=No   SubMesh=No
 
TABLE:  "AREA LOADS - UNIFORM"
   Area=19625   LoadPat=LL   CoordSys=GLOBAL   Dir=Gravity   UnifLoad=1.00034158457019
   Area=19626   LoadPat=LL   CoordSys=GLOBAL   Dir=Gravity   UnifLoad=1.00034158457019
   Area=19627   LoadPat=LL   CoordSys=GLOBAL   Dir=Gravity   UnifLoad=1.00034158457019
   Area=19628   LoadPat=LL   CoordSys=GLOBAL   Dir=Gravity   UnifLoad=1.00034158457019
   Area=19629   LoadPat=LL   CoordSys=GLOBAL   Dir=Gravity   UnifLoad=1.00034158457019
   Area=19630   LoadPat=LL   CoordSys=GLOBAL   Dir=Gravity   UnifLoad=1.00034158457019
   Area=19631   LoadPat=LL   CoordSys=GLOBAL   Dir=Gravity   UnifLoad=1.00034158457019
   Area=19632   LoadPat=LL   CoordSys=GLOBAL   Dir=Gravity   UnifLoad=1.00034158457019
   Area=19633   LoadPat=LL   CoordSys=GLOBAL   Dir=Gravity   UnifLoad=1.00034158457019
   Area=19634   LoadPat=LL   CoordSys=GLOBAL   Dir=Gravity   UnifLoad=1.00034158457019
   Area=19635   LoadPat=LL   CoordSys=GLOBAL   Dir=Gravity   UnifLoad=1.00034158457019
   Area=19636   LoadPat=LL   CoordSys=GLOBAL   Dir=Gravity   UnifLoad=1.00034158457019
   Area=19637   LoadPat=LL   CoordSys=GLOBAL   Dir=Gravity   UnifLoad=1.00034158457019
   Area=19638   LoadPat=LL   CoordSys=GLOBAL   Dir=Gravity   UnifLoad=1.00034158457019
   Area=19639   LoadPat=LL   CoordSys=GLOBAL   Dir=Gravity   UnifLoad=1.00034158457019
 
TABLE:  "AREA SECTION ASSIGNMENTS"
   Area=19625   Section=Deck   MatProp=Default
   Area=19626   Section=Deck   MatProp=Default
   Area=19627   Section=Deck   MatProp=Default
   Area=19628   Section=Deck   MatProp=Default
   Area=19629   Section=Deck   MatProp=Default
   Area=19630   Section=Deck   MatProp=Default
   Area=19631   Section=Deck   MatProp=Default
   Area=19632   Section=Deck   MatProp=Default
   Area=19633   Section=Deck   MatProp=Default
   Area=19634   Section=Deck   MatProp=Default
   Area=19635   Section=Deck   MatProp=Default
   Area=19636   Section=Deck   MatProp=Default
   Area=19637   Section=Deck   MatProp=Default
   Area=19638   Section=Deck   MatProp=Default
   Area=19639   Section=Deck   MatProp=Default
 
TABLE:  "AREA SECTION PROPERTIES"
   Section=Deck   Material=BTCT   MatAngle=0   AreaType=Shell   Type=Shell-Thin   DrillDOF=Yes   Thickness=0.3   BendThick=0.3   Color=Green   F11Mod=1   F22Mod=1   F12Mod=1   M11Mod=1   M22Mod=1   M12Mod=1   V13Mod=1   V23Mod=1   MMod=1 _
        WMod=1   Notes="Added 24-Feb-23 16:56:47"
 
TABLE:  "AREA SECTION PROPERTY DESIGN PARAMETERS"
   Section=Deck   RebarMat=None   RebarOpt=Default
 
TABLE:  "AREA SECTION PROPERTY - TIME DEPENDENT"
   Section=Deck   TypeSize=User   AutoSFSize=1   UserValSize=0.1
 
TABLE:  "AUTO COMBINATION OPTION DATA 01 - GENERAL"
   DesignType=Concrete   AutoGen=Yes
 
TABLE:  "AUTO COMBINATION OPTION DATA 02 - USER DATA"
   DesignType=Concrete   LSType=Strength   LCName=DEAD
   DesignType=Concrete   LSType=Strength   LCName=LL
 
TABLE:  "AUTO WAVE 3 - WAVE CHARACTERISTICS - GENERAL"
   WaveChar=Default   WaveType="From Theory"   KinFactor=1   SWaterDepth=45   WaveHeight=18   WavePeriod=12   WaveTheory=Linear
 
TABLE:  "CASE - MODAL 1 - GENERAL"
   Case=MODAL   ModeType=Eigen   MaxNumModes=12   MinNumModes=1   EigenShift=0   EigenCutoff=0   EigenTol=1E-09   AutoShift=Yes
 
TABLE:  "CASE - STATIC 1 - LOAD ASSIGNMENTS"
   Case=DEAD   LoadType="Load pattern"   LoadName=DEAD   LoadSF=1
   Case=LL   LoadType="Load pattern"   LoadName=LL   LoadSF=1
 
TABLE:  "COMBINATION DEFINITIONS"
   ComboName=COMB1   ComboType="Linear Add"   AutoDesign=No   CaseName=DEAD   ScaleFactor=1   SteelDesign=None   ConcDesign=Strength   AlumDesign=None   ColdDesign=None
   ComboName=COMB2   ComboType="Linear Add"   AutoDesign=No   CaseName=DEAD   ScaleFactor=1   SteelDesign=None   ConcDesign=Strength   AlumDesign=None   ColdDesign=None
   ComboName=COMB2   CaseName=LL   ScaleFactor=1
   ComboName=BAO   ComboType=Envelope   AutoDesign=No   CaseName=COMB1   ScaleFactor=1   SteelDesign=None   ConcDesign=Strength   AlumDesign=None   ColdDesign=None
   ComboName=BAO   CaseName=COMB2   ScaleFactor=1
   ComboName=DCON1   ComboType="Linear Add"   AutoDesign=Yes   CaseName=DEAD   ScaleFactor=1.4   SteelDesign=None   ConcDesign=Strength   AlumDesign=None   ColdDesign=None   GUID=bb4fff9a-98b5-44d1-9fde-34d92700a8e9   Notes="Dead Only; Strength"
   ComboName=DCON2   ComboType="Linear Add"   AutoDesign=Yes   CaseName=DEAD   ScaleFactor=1.25   SteelDesign=None   ConcDesign=Strength   AlumDesign=None   ColdDesign=None   GUID=505bcda7-6fac-4dd0-b03e-c591d1ffc6ce   Notes="Dead + Live; Strength"
   ComboName=DCON2   CaseName=LL   ScaleFactor=1.5
 
TABLE:  "CONNECTIVITY - AREA"
   Area=19625   Joint1=57419   Joint2=57395   Joint3=57380   Joint4=57379   GUID=bb14e0df-c437-4be6-9bba-2fea76b611b8
   Area=19626   Joint1=57379   Joint2=57380   Joint3=57382   Joint4=57381   GUID=ed14efe7-e70e-4d9d-b69d-389c68270774
   Area=19627   Joint1=57381   Joint2=57382   Joint3=57384   Joint4=57383   GUID=d848cde0-d41a-4288-9438-094856ddfaa3
   Area=19628   Joint1=57383   Joint2=57384   Joint3=57386   Joint4=57385   GUID=bbbfbf78-266a-4180-8327-705b16e7e409
   Area=19629   Joint1=57385   Joint2=57386   Joint3=57397   Joint4=57420   GUID=bf3bfe41-55d4-41d8-b0c9-51181268e56b
   Area=19630   Joint1=57395   Joint2=57396   Joint3=57387   Joint4=57380   GUID=4e94f22e-e37b-4778-b6e5-e4aca4fdab08
   Area=19631   Joint1=57380   Joint2=57387   Joint3=57388   Joint4=57382   GUID=21476cb0-6f7b-42b1-8c0e-da9bd6bf4b8e
   Area=19632   Joint1=57382   Joint2=57388   Joint3=57389   Joint4=57384   GUID=88cb5448-e500-4aa6-b7f1-5a302e81e29b
   Area=19633   Joint1=57384   Joint2=57389   Joint3=57390   Joint4=57386   GUID=1383f597-dcb0-4a3d-b96d-88cca4e10202
   Area=19634   Joint1=57386   Joint2=57390   Joint3=57398   Joint4=57397   GUID=e3dd0b2a-6353-410b-904e-7052303297ed
   Area=19635   Joint1=57396   Joint2=57421   Joint3=57391   Joint4=57387   GUID=d0360b46-aab5-4654-bb6a-e2a2e6e7e24a
   Area=19636   Joint1=57387   Joint2=57391   Joint3=57392   Joint4=57388   GUID=11f0e8f8-0671-41ab-9901-858e2435ba7c
   Area=19637   Joint1=57388   Joint2=57392   Joint3=57393   Joint4=57389   GUID=fd4226bf-81ea-4119-a492-ad8961efd931
   Area=19638   Joint1=57389   Joint2=57393   Joint3=57394   Joint4=57390   GUID=f172c073-4e60-4c63-a419-c1f9aefd28a0
   Area=19639   Joint1=57390   Joint2=57394   Joint3=57422   Joint4=57398   GUID=fb345aed-96b5-4a64-baae-fa00fc5ace95
 
TABLE:  "CONNECTIVITY - FRAME"
   Frame=62823   JointI=57379   JointJ=57380   IsCurved=No   GUID=0a13dab9-ccac-417f-a8df-6d5ac4c7c3c1
   Frame=62824   JointI=57381   JointJ=57382   IsCurved=No   GUID=dbf99aea-e520-4c13-a57f-27e2403795c2
   Frame=62825   JointI=57383   JointJ=57384   IsCurved=No   GUID=38e811b4-4ee3-4616-9591-17fb7b364243
   Frame=62826   JointI=57385   JointJ=57386   IsCurved=No   GUID=cfadf052-de90-4204-a82b-3cd6eeff4bd4
   Frame=62827   JointI=57380   JointJ=57387   IsCurved=No   GUID=8777d01b-9378-494c-8567-0421105e62dd
   Frame=62828   JointI=57382   JointJ=57388   IsCurved=No   GUID=c9154635-29c4-49db-9394-d0acb973ae07
   Frame=62829   JointI=57384   JointJ=57389   IsCurved=No   GUID=6a27757f-eba2-4f3c-afb9-a867dc438724
   Frame=62830   JointI=57386   JointJ=57390   IsCurved=No   GUID=3f5e1282-520c-4a1a-9ed8-bfcba0297d5d
   Frame=62831   JointI=57387   JointJ=57391   IsCurved=No   GUID=8a8476f7-ba96-497c-9e08-9c32268aa46a
   Frame=62832   JointI=57388   JointJ=57392   IsCurved=No   GUID=df575810-ba66-4508-a563-5d7be09fbbd2
   Frame=62833   JointI=57389   JointJ=57393   IsCurved=No   GUID=af513f19-89df-41de-8f71-06dcba4572c6
   Frame=62834   JointI=57390   JointJ=57394   IsCurved=No   GUID=27f09f49-a589-455d-bb60-2ee44d440cda
   Frame=62835   JointI=57395   JointJ=57380   IsCurved=No   GUID=9a06b18b-9274-4cf5-98b2-2fde96b03cf4
   Frame=62836   JointI=57396   JointJ=57387   IsCurved=No   GUID=3457e593-e5c5-4175-91a0-20cd212995b4
   Frame=62837   JointI=57380   JointJ=57382   IsCurved=No   GUID=29299783-2ab9-4130-b299-c322501fcaa9
   Frame=62838   JointI=57387   JointJ=57388   IsCurved=No   GUID=5451b3b2-6ab4-4317-8253-342208b4f9cb
   Frame=62839   JointI=57382   JointJ=57384   IsCurved=No   GUID=d8597257-4d54-48b6-a166-bf63d0291a70
   Frame=62840   JointI=57388   JointJ=57389   IsCurved=No   GUID=eda9ee88-f224-49c3-8025-27d5099e43dd
   Frame=62841   JointI=57384   JointJ=57386   IsCurved=No   GUID=f95f5a59-59b4-419d-bc4d-de1a593bb340
   Frame=62842   JointI=57389   JointJ=57390   IsCurved=No   GUID=1bfd3b30-8a5d-461f-824d-b9ecf9dd2cca
   Frame=62843   JointI=57386   JointJ=57397   IsCurved=No   GUID=879ac4c8-53ba-4204-9bf7-b2b993a5e5d0
   Frame=62844   JointI=57390   JointJ=57398   IsCurved=No   GUID=9b7e71d5-8c26-4b6c-820d-c5bbd6307126
   Frame=62845   JointI=57380   JointJ=57399   IsCurved=No   GUID=34e3f871-23dd-44f8-9cef-4419647b7f01
   Frame=62846   JointI=57399   JointJ=57400   IsCurved=No   GUID=7aedeffb-5719-40c6-be20-23f0299180e9
   Frame=62847   JointI=57400   JointJ=57401   IsCurved=No   GUID=4bdd1dae-2586-4cbf-ade7-9d399b3a3e86
   Frame=62848   JointI=57382   JointJ=57402   IsCurved=No   GUID=ff390d59-1809-4bc7-a3e3-67c03e688a30
   Frame=62849   JointI=57402   JointJ=57403   IsCurved=No   GUID=22f849e1-33fe-49c1-ac9d-431cf0bdd05a
   Frame=62850   JointI=57403   JointJ=57404   IsCurved=No   GUID=feaa513d-dc3f-4ca7-b2c7-1923885a5263
   Frame=62851   JointI=57384   JointJ=57405   IsCurved=No   GUID=b7465883-9dce-4a29-8205-5c6bd108b5f7
   Frame=62852   JointI=57405   JointJ=57406   IsCurved=No   GUID=16fee304-a28a-43bf-b8a6-32ee51731bca
   Frame=62853   JointI=57406   JointJ=57407   IsCurved=No   GUID=4b2be479-ea54-4e16-9ee2-030f02859f0d
   Frame=62854   JointI=57386   JointJ=57408   IsCurved=No   GUID=c4e1c854-02e3-4a4b-8818-7da92cdb30ab
   Frame=62855   JointI=57408   JointJ=57409   IsCurved=No   GUID=6e37f645-7e36-471b-ae05-acde0ce6633b
   Frame=62856   JointI=57409   JointJ=57410   IsCurved=No   GUID=1658c0fa-b2a9-4b04-a228-a26ca62a9929
   Frame=62857   JointI=57387   JointJ=57411   IsCurved=No   GUID=411ad90b-f355-4fbe-8733-edda40802bac
   Frame=62858   JointI=57411   JointJ=57412   IsCurved=No   GUID=8f727b8a-6c2b-404f-b0c7-228f67d4a07d
   Frame=62859   JointI=57388   JointJ=57413   IsCurved=No   GUID=c1965176-9eaf-47f0-bfbc-4a6135384503
   Frame=62860   JointI=57413   JointJ=57414   IsCurved=No   GUID=6285597e-5002-4018-892c-f99f4ec28900
   Frame=62861   JointI=57389   JointJ=57415   IsCurved=No   GUID=37f5e7c4-32ba-4925-8c8e-e23ab3b35653
   Frame=62862   JointI=57415   JointJ=57416   IsCurved=No   GUID=da277b6a-c988-49b5-b889-164100a84f59
   Frame=62863   JointI=57390   JointJ=57417   IsCurved=No   GUID=43288971-e180-460b-837c-4df4a0f6e0fd
   Frame=62864   JointI=57417   JointJ=57418   IsCurved=No   GUID=0c0e4502-764e-4fa1-b711-a0cf3cd29dd0
   Frame=62865   JointI=57399   JointJ=57402   IsCurved=No   GUID=3e847589-3630-4f73-94bc-07d52f9d26ec
   Frame=62866   JointI=57402   JointJ=57405   IsCurved=No   GUID=d60c6d18-c85b-494f-941c-e3c417960f6c
   Frame=62867   JointI=57405   JointJ=57408   IsCurved=No   GUID=b44ff96b-7308-49ad-b65f-52618a5e9a7a
 
TABLE:  "COORDINATE SYSTEMS"
   Name=GLOBAL   Type=Cartesian   X=0   Y=0   Z=0   AboutZ=0   AboutY=0   AboutX=0
 
TABLE:  "DATABASE DOCUMENTATION"
 
TABLE:  "DATABASE FORMAT TYPES"
   UnitsCurr=Yes   OverrideE=No
 
TABLE:  "FRAME AUTO MESH ASSIGNMENTS"
   Frame=62823   AutoMesh=Yes   AtJoints=Yes   AtFrames=No   NumSegments=0   MaxLength=0   MaxDegrees=0
   Frame=62824   AutoMesh=Yes   AtJoints=Yes   AtFrames=No   NumSegments=0   MaxLength=0   MaxDegrees=0
   Frame=62825   AutoMesh=Yes   AtJoints=Yes   AtFrames=No   NumSegments=0   MaxLength=0   MaxDegrees=0
   Frame=62826   AutoMesh=Yes   AtJoints=Yes   AtFrames=No   NumSegments=0   MaxLength=0   MaxDegrees=0
   Frame=62827   AutoMesh=Yes   AtJoints=Yes   AtFrames=No   NumSegments=0   MaxLength=0   MaxDegrees=0
   Frame=62828   AutoMesh=Yes   AtJoints=Yes   AtFrames=No   NumSegments=0   MaxLength=0   MaxDegrees=0
   Frame=62829   AutoMesh=Yes   AtJoints=Yes   AtFrames=No   NumSegments=0   MaxLength=0   MaxDegrees=0
   Frame=62830   AutoMesh=Yes   AtJoints=Yes   AtFrames=No   NumSegments=0   MaxLength=0   MaxDegrees=0
   Frame=62831   AutoMesh=Yes   AtJoints=Yes   AtFrames=No   NumSegments=0   MaxLength=0   MaxDegrees=0
   Frame=62832   AutoMesh=Yes   AtJoints=Yes   AtFrames=No   NumSegments=0   MaxLength=0   MaxDegrees=0
   Frame=62833   AutoMesh=Yes   AtJoints=Yes   AtFrames=No   NumSegments=0   MaxLength=0   MaxDegrees=0
   Frame=62834   AutoMesh=Yes   AtJoints=Yes   AtFrames=No   NumSegments=0   MaxLength=0   MaxDegrees=0
   Frame=62835   AutoMesh=Yes   AtJoints=Yes   AtFrames=No   NumSegments=0   MaxLength=0   MaxDegrees=0
   Frame=62836   AutoMesh=Yes   AtJoints=Yes   AtFrames=No   NumSegments=0   MaxLength=0   MaxDegrees=0
   Frame=62837   AutoMesh=Yes   AtJoints=Yes   AtFrames=No   NumSegments=0   MaxLength=0   MaxDegrees=0
   Frame=62838   AutoMesh=Yes   AtJoints=Yes   AtFrames=No   NumSegments=0   MaxLength=0   MaxDegrees=0
   Frame=62839   AutoMesh=Yes   AtJoints=Yes   AtFrames=No   NumSegments=0   MaxLength=0   MaxDegrees=0
   Frame=62840   AutoMesh=Yes   AtJoints=Yes   AtFrames=No   NumSegments=0   MaxLength=0   MaxDegrees=0
   Frame=62841   AutoMesh=Yes   AtJoints=Yes   AtFrames=No   NumSegments=0   MaxLength=0   MaxDegrees=0
   Frame=62842   AutoMesh=Yes   AtJoints=Yes   AtFrames=No   NumSegments=0   MaxLength=0   MaxDegrees=0
# ... 25 like lines cut
 
TABLE:  "FRAME DESIGN PROCEDURES"
   Frame=62823   DesignProc="From Material"
   Frame=62824   DesignProc="From Material"
   Frame=62825   DesignProc="From Material"
   Frame=62826   DesignProc="From Material"
   Frame=62827   DesignProc="From Material"
   Frame=62828   DesignProc="From Material"
   Frame=62829   DesignProc="From Material"
   Frame=62830   DesignProc="From Material"
   Frame=62831   DesignProc="From Material"
   Frame=62832   DesignProc="From Material"
   Frame=62833   DesignProc="From Material"
   Frame=62834   DesignProc="From Material"
   Frame=62835   DesignProc="From Material"
   Frame=62836   DesignProc="From Material"
   Frame=62837   DesignProc="From Material"
   Frame=62838   DesignProc="From Material"
   Frame=62839   DesignProc="From Material"
   Frame=62840   DesignProc="From Material"
   Frame=62841   DesignProc="From Material"
   Frame=62842   DesignProc="From Material"
   Frame=62843   DesignProc="From Material"
   Frame=62844   DesignProc="From Material"
   Frame=62845   DesignProc="From Material"
   Frame=62846   DesignProc="No Design"
   Frame=62847   DesignProc="No Design"
   Frame=62848   DesignProc="From Material"
   Frame=62849   DesignProc="No Design"
   Frame=62850   DesignProc="No Design"
   Frame=62851   DesignProc="From Material"
   Frame=62852   DesignProc="No Design"
   Frame=62853   DesignProc="No Design"
   Frame=62854   DesignProc="From Material"
   Frame=62855   DesignProc="No Design"
   Frame=62856   DesignProc="No Design"
   Frame=62857   DesignProc="No Design"
   Frame=62858   DesignProc="No Design"
   Frame=62859   DesignProc="No Design"
   Frame=62860   DesignProc="No Design"
   Frame=62861   DesignProc="No Design"
   Frame=62862   DesignProc="No Design"
   Frame=62863   DesignProc="No Design"
   Frame=62864   DesignProc="No Design"
   Frame=62865   DesignProc="From Material"
   Frame=62866   DesignProc="From Material"
   Frame=62867   DesignProc="From Material"
 
TABLE:  "FRAME LOAD TRANSFER OPTIONS"
   Frame=62823   Transfer=Yes
   Frame=62824   Transfer=Yes
   Frame=62825   Transfer=Yes
   Frame=62826   Transfer=Yes
   Frame=62827   Transfer=Yes
   Frame=62828   Transfer=Yes
   Frame=62829   Transfer=Yes
   Frame=62830   Transfer=Yes
   Frame=62831   Transfer=Yes
   Frame=62832   Transfer=Yes
   Frame=62833   Transfer=Yes
   Frame=62834   Transfer=Yes
   Frame=62835   Transfer=Yes
   Frame=62836   Transfer=Yes
   Frame=62837   Transfer=Yes
   Frame=62838   Transfer=Yes
   Frame=62839   Transfer=Yes
   Frame=62840   Transfer=Yes
   Frame=62841   Transfer=Yes
   Frame=62842   Transfer=Yes
# ... 25 like lines cut
 
TABLE:  "FRAME LOCAL AXES ASSIGNMENTS 1 - TYPICAL"
   Frame=62845   Angle=90
   Frame=62848   Angle=90
   Frame=62851   Angle=90
   Frame=62854   Angle=90
 
TABLE:  "FRAME OUTPUT STATION ASSIGNMENTS"
   Frame=62823   StationType=MaxStaSpcg   MaxStaSpcg=0.5   AddAtElmInt=Yes   AddAtPtLoad=Yes
   Frame=62824   StationType=MaxStaSpcg   MaxStaSpcg=0.5   AddAtElmInt=Yes   AddAtPtLoad=Yes
   Frame=62825   StationType=MaxStaSpcg   MaxStaSpcg=0.5   AddAtElmInt=Yes   AddAtPtLoad=Yes
   Frame=62826   StationType=MaxStaSpcg   MaxStaSpcg=0.5   AddAtElmInt=Yes   AddAtPtLoad=Yes
   Frame=62827   StationType=MaxStaSpcg   MaxStaSpcg=0.5   AddAtElmInt=Yes   AddAtPtLoad=Yes
   Frame=62828   StationType=MaxStaSpcg   MaxStaSpcg=0.5   AddAtElmInt=Yes   AddAtPtLoad=Yes
   Frame=62829   StationType=MaxStaSpcg   MaxStaSpcg=0.5   AddAtElmInt=Yes   AddAtPtLoad=Yes
   Frame=62830   StationType=MaxStaSpcg   MaxStaSpcg=0.5   AddAtElmInt=Yes   AddAtPtLoad=Yes
   Frame=62831   StationType=MaxStaSpcg   MaxStaSpcg=0.5   AddAtElmInt=Yes   AddAtPtLoad=Yes
   Frame=62832   StationType=MaxStaSpcg   MaxStaSpcg=0.5   AddAtElmInt=Yes   AddAtPtLoad=Yes
   Frame=62833   StationType=MaxStaSpcg   MaxStaSpcg=0.5   AddAtElmInt=Yes   AddAtPtLoad=Yes
   Frame=62834   StationType=MaxStaSpcg   MaxStaSpcg=0.5   AddAtElmInt=Yes   AddAtPtLoad=Yes
   Frame=62835   StationType=MaxStaSpcg   MaxStaSpcg=0.5   AddAtElmInt=Yes   AddAtPtLoad=Yes
   Frame=62836   StationType=MaxStaSpcg   MaxStaSpcg=0.5   AddAtElmInt=Yes   AddAtPtLoad=Yes
   Frame=62837   StationType=MaxStaSpcg   MaxStaSpcg=0.5   AddAtElmInt=Yes   AddAtPtLoad=Yes
   Frame=62838   StationType=MaxStaSpcg   MaxStaSpcg=0.5   AddAtElmInt=Yes   AddAtPtLoad=Yes
   Frame=62839   StationType=MaxStaSpcg   MaxStaSpcg=0.5   AddAtElmInt=Yes   AddAtPtLoad=Yes
   Frame=62840   StationType=MaxStaSpcg   MaxStaSpcg=0.5   AddAtElmInt=Yes   AddAtPtLoad=Yes
   Frame=62841   StationType=MaxStaSpcg   MaxStaSpcg=0.5   AddAtElmInt=Yes   AddAtPtLoad=Yes
   Frame=62842   StationType=MaxStaSpcg   MaxStaSpcg=0.5   AddAtElmInt=Yes   AddAtPtLoad=Yes
   Frame=62843   StationType=MaxStaSpcg   MaxStaSpcg=0.5   AddAtElmInt=Yes   AddAtPtLoad=Yes
   Frame=62844   StationType=MaxStaSpcg   MaxStaSpcg=0.5   AddAtElmInt=Yes   AddAtPtLoad=Yes
   Frame=62845   StationType=MinNumSta   MinNumSta=3   AddAtElmInt=Yes   AddAtPtLoad=Yes
   Frame=62846   StationType=MinNumSta   MinNumSta=3   AddAtElmInt=Yes   AddAtPtLoad=Yes
   Frame=62847   StationType=MinNumSta   MinNumSta=3   AddAtElmInt=Yes   AddAtPtLoad=Yes
   Frame=62848   StationType=MinNumSta   MinNumSta=3   AddAtElmInt=Yes   AddAtPtLoad=Yes
   Frame=62849   StationType=MinNumSta   MinNumSta=3   AddAtElmInt=Yes   AddAtPtLoad=Yes
   Frame=62850   StationType=MinNumSta   MinNumSta=3   AddAtElmInt=Yes   AddAtPtLoad=Yes
   Frame=62851   StationType=MinNumSta   MinNumSta=3   AddAtElmInt=Yes   AddAtPtLoad=Yes
   Frame=62852   StationType=MinNumSta   MinNumSta=3   AddAtElmInt=Yes   AddAtPtLoad=Yes
   Frame=62853   StationType=MinNumSta   MinNumSta=3   AddAtElmInt=Yes   AddAtPtLoad=Yes
   Frame=62854   StationType=MinNumSta   MinNumSta=3   AddAtElmInt=Yes   AddAtPtLoad=Yes
   Frame=62855   StationType=MinNumSta   MinNumSta=3   AddAtElmInt=Yes   AddAtPtLoad=Yes
   Frame=62856   StationType=MinNumSta   MinNumSta=3   AddAtElmInt=Yes   AddAtPtLoad=Yes
   Frame=62857   StationType=MinNumSta   MinNumSta=3   AddAtElmInt=Yes   AddAtPtLoad=Yes
   Frame=62858   StationType=MinNumSta   MinNumSta=3   AddAtElmInt=Yes   AddAtPtLoad=Yes
   Frame=62859   StationType=MinNumSta   MinNumSta=3   AddAtElmInt=Yes   AddAtPtLoad=Yes
   Frame=62860   StationType=MinNumSta   MinNumSta=3   AddAtElmInt=Yes   AddAtPtLoad=Yes
   Frame=62861   StationType=MinNumSta   MinNumSta=3   AddAtElmInt=Yes   AddAtPtLoad=Yes
   Frame=62862   StationType=MinNumSta   MinNumSta=3   AddAtElmInt=Yes   AddAtPtLoad=Yes
   Frame=62863   StationType=MinNumSta   MinNumSta=3   AddAtElmInt=Yes   AddAtPtLoad=Yes
   Frame=62864   StationType=MinNumSta   MinNumSta=3   AddAtElmInt=Yes   AddAtPtLoad=Yes
   Frame=62865   StationType=MaxStaSpcg   MaxStaSpcg=0.5   AddAtElmInt=Yes   AddAtPtLoad=Yes
   Frame=62866   StationType=MaxStaSpcg   MaxStaSpcg=0.5   AddAtElmInt=Yes   AddAtPtLoad=Yes
   Frame=62867   StationType=MaxStaSpcg   MaxStaSpcg=0.5   AddAtElmInt=Yes   AddAtPtLoad=Yes
 
TABLE:  "FRAME SECTION ASSIGNMENTS"
   Frame=62823   AutoSelect=N.A.   AnalSect=TB   MatProp=Default
   Frame=62824   AutoSelect=N.A.   AnalSect=TB   MatProp=Default
   Frame=62825   AutoSelect=N.A.   AnalSect=TB   MatProp=Default
   Frame=62826   AutoSelect=N.A.   AnalSect=TB   MatProp=Default
   Frame=62827   AutoSelect=N.A.   AnalSect=TB   MatProp=Default
   Frame=62828   AutoSelect=N.A.   AnalSect=TB   MatProp=Default
   Frame=62829   AutoSelect=N.A.   AnalSect=TB   MatProp=Default
   Frame=62830   AutoSelect=N.A.   AnalSect=TB   MatProp=Default
   Frame=62831   AutoSelect=N.A.   AnalSect=TB   MatProp=Default
   Frame=62832   AutoSelect=N.A.   AnalSect=TB   MatProp=Default
   Frame=62833   AutoSelect=N.A.   AnalSect=TB   MatProp=Default
   Frame=62834   AutoSelect=N.A.   AnalSect=TB   MatProp=Default
   Frame=62835   AutoSelect=N.A.   AnalSect=LB   MatProp=Default
   Frame=62836   AutoSelect=N.A.   AnalSect=LB   MatProp=Default
   Frame=62837   AutoSelect=N.A.   AnalSect=LB   MatProp=Default
   Frame=62838   AutoSelect=N.A.   AnalSect=LB   MatProp=Default
   Frame=62839   AutoSelect=N.A.   AnalSect=LB   MatProp=Default
   Frame=62840   AutoSelect=N.A.   AnalSect=LB   MatProp=Default
   Frame=62841   AutoSelect=N.A.   AnalSect=LB   MatProp=Default
   Frame=62842   AutoSelect=N.A.   AnalSect=LB   MatProp=Default
   Frame=62843   AutoSelect=N.A.   AnalSect=LB   MatProp=Default
   Frame=62844   AutoSelect=N.A.   AnalSect=LB   MatProp=Default
   Frame=62845   AutoSelect=N.A.   AnalSect=EB   MatProp=Default
   Frame=62846   AutoSelect=N.A.   AnalSect=Piles   MatProp=Default
   Frame=62847   AutoSelect=N.A.   AnalSect=Piles   MatProp=Default
   Frame=62848   AutoSelect=N.A.   AnalSect=EB   MatProp=Default
   Frame=62849   AutoSelect=N.A.   AnalSect=Piles   MatProp=Default
   Frame=62850   AutoSelect=N.A.   AnalSect=Piles   MatProp=Default
   Frame=62851   AutoSelect=N.A.   AnalSect=EB   MatProp=Default
   Frame=62852   AutoSelect=N.A.   AnalSect=Piles   MatProp=Default
   Frame=62853   AutoSelect=N.A.   AnalSect=Piles   MatProp=Default
   Frame=62854   AutoSelect=N.A.   AnalSect=EB   MatProp=Default
   Frame=62855   AutoSelect=N.A.   AnalSect=Piles   MatProp=Default
   Frame=62856   AutoSelect=N.A.   AnalSect=Piles   MatProp=Default
   Frame=62857   AutoSelect=N.A.   AnalSect=Piles   MatProp=Default
   Frame=62858   AutoSelect=N.A.   AnalSect=Piles   MatProp=Default
   Frame=62859   AutoSelect=N.A.   AnalSect=Piles   MatProp=Default
   Frame=62860   AutoSelect=N.A.   AnalSect=Piles   MatProp=Default
   Frame=62861   AutoSelect=N.A.   AnalSect=Piles   MatProp=Default
   Frame=62862   AutoSelect=N.A.   AnalSect=Piles   MatProp=Default
   Frame=62863   AutoSelect=N.A.   AnalSect=Piles   MatProp=Default
   Frame=62864   AutoSelect=N.A.   AnalSect=Piles   MatProp=Default
   Frame=62865   AutoSelect=N.A.   AnalSect=EB-1   MatProp=Default
   Frame=62866   AutoSelect=N.A.   AnalSect=EB-1   MatProp=Default
   Frame=62867   AutoSelect=N.A.   AnalSect=EB-1   MatProp=Default
 
TABLE:  "FRAME SECTION PROPERTIES 01 - GENERAL"
   SectionName=EB   Material=BTCT   Shape=Rectangular   t3=1.2   t2=0.5   Area=0.6   TorsConst=0.0369079665195795   I33=0.072   I22=0.0125   I23=0   AS2=0.5   AS3=0.5   S33Top=0.12   S33Bot=0.12   S22Left=0.05   S22Right=0.05   Z33=0.18 _
        Z22=0.075   R33=0.346410161513775   R22=0.144337567297406   CGOffset3=0   CGOffset2=0   EccV2=0   EccV3=0   Cw=0   Color=Magenta   FromFile=No   AMod=1   A2Mod=1   A3Mod=1   JMod=1   I2Mod=1   I3Mod=1   MMod=1   WMod=1
   SectionName=EB-1   Material=BTCT   Shape=Rectangular   t3=0.5   t2=0.5   Area=0.25   TorsConst=0.00880208333333333   I33=0.00520833333333333   I22=0.00520833333333333   I23=0   AS2=0.208333333333333   AS3=0.208333333333333 _
        S33Top=0.0208333333333333   S33Bot=0.0208333333333333   S22Left=0.0208333333333333   S22Right=0.0208333333333333   Z33=0.03125   Z22=0.03125   R33=0.144337567297406   R22=0.144337567297406   CGOffset3=0   CGOffset2=0   EccV2=0 _
        EccV3=0   Cw=0   Color=Yellow   FromFile=No   AMod=1   A2Mod=1   A3Mod=1   JMod=1   I2Mod=1   I3Mod=1   MMod=1   WMod=1
   SectionName=LB   Material=BTCT   Shape=Rectangular   t3=0.5   t2=0.5   Area=0.25   TorsConst=0.00880208333333333   I33=0.00520833333333333   I22=0.00520833333333333   I23=0   AS2=0.208333333333333   AS3=0.208333333333333 _
        S33Top=0.0208333333333333   S33Bot=0.0208333333333333   S22Left=0.0208333333333333   S22Right=0.0208333333333333   Z33=0.03125   Z22=0.03125   R33=0.144337567297406   R22=0.144337567297406   CGOffset3=0   CGOffset2=0   EccV2=0 _
        EccV3=0   Cw=0   Color=Red   FromFile=No   AMod=1   A2Mod=1   A3Mod=1   JMod=1   I2Mod=1   I3Mod=1   MMod=1   WMod=1
   SectionName=Piles   Material=BTCTCOC   Shape=Pipe   t3=0.3   tw=0.06   Area=0.045238934211693   TorsConst=0.000692155693438903   I33=0.000346077846719452   I22=0.000346077846719452   I23=0   AS2=0.0235427106611872 _
        AS3=0.0235427106611872   S33Top=0.00230718564479634   S33Bot=0.00230718564479634   S22Left=0.00230718564479634   S22Right=0.00230718564479634   Z33=0.003528   Z22=0.003528   R33=0.0874642784226795   R22=0.0874642784226795 _
        CGOffset3=0   CGOffset2=0   EccV2=0   EccV3=0   Cw=0   Color=Gray8Dark   FromFile=No   AMod=1   A2Mod=1   A3Mod=1   JMod=1   I2Mod=1   I3Mod=1   MMod=1   WMod=1
   SectionName=TB   Material=BTCT   Shape=Rectangular   t3=0.5   t2=0.5   Area=0.25   TorsConst=0.00880208333333333   I33=0.00520833333333333   I22=0.00520833333333333   I23=0   AS2=0.208333333333333   AS3=0.208333333333333 _
        S33Top=0.0208333333333333   S33Bot=0.0208333333333333   S22Left=0.0208333333333333   S22Right=0.0208333333333333   Z33=0.03125   Z22=0.03125   R33=0.144337567297406   R22=0.144337567297406   CGOffset3=0   CGOffset2=0   EccV2=0 _
        EccV3=0   Cw=0   Color=Cyan   FromFile=No   AMod=1   A2Mod=1   A3Mod=1   JMod=1   I2Mod=1   I3Mod=1   MMod=1   WMod=1
 
TABLE:  "FRAME SECTION PROPERTIES 02 - CONCRETE COLUMN"
   SectionName=EB   RebarMatL=A706   RebarMatC=A706   ReinfConfig=Rectangular   LatReinf=Ties   Cover=0.05   NumBars3Dir=2   NumBars2Dir=2   BarSizeL=12d   BarSizeC=10d   SpacingC=0.1   NumCBars2=2   NumCBars3=2   ReinfType=Design
   SectionName=EB-1   RebarMatL=A706   RebarMatC=A706   ReinfConfig=Rectangular   LatReinf=Ties   Cover=0.05   NumBars3Dir=2   NumBars2Dir=2   BarSizeL=12d   BarSizeC=10d   SpacingC=0.1   NumCBars2=2   NumCBars3=2   ReinfType=Design
   SectionName=LB   RebarMatL=A706   RebarMatC=A706   ReinfConfig=Rectangular   LatReinf=Ties   Cover=0.05   NumBars3Dir=2   NumBars2Dir=2   BarSizeL=12d   BarSizeC=10d   SpacingC=0.1   NumCBars2=2   NumCBars3=2   ReinfType=Design
   SectionName=TB   RebarMatL=A706   RebarMatC=A706   ReinfConfig=Rectangular   LatReinf=Ties   Cover=0.05   NumBars3Dir=2   NumBars2Dir=2   BarSizeL=12d   BarSizeC=10d   SpacingC=0.1   NumCBars2=2   NumCBars3=2   ReinfType=Design
 
TABLE:  "FRAME SECTION PROPERTIES 13 - TIME DEPENDENT"
   SectionName=EB   TypeSize=Auto   AutoSFSize=1
   SectionName=EB-1   TypeSize=Auto   AutoSFSize=1
   SectionName=LB   TypeSize=Auto   AutoSFSize=1
   SectionName=Piles   TypeSize=Auto   AutoSFSize=1
   SectionName=TB   TypeSize=Auto   AutoSFSize=1
 
TABLE:  "FUNCTION - PLOT FUNCTIONS"
   PlotFunc="Input Energy"   Type=Energy   Component=Input   Mode=All
 
TABLE:  "FUNCTION - POWER SPECTRAL DENSITY - USER"
   Name=UNIFPSD   Frequency=0   Value=1
   Name=UNIFPSD   Frequency=1   Value=1
 
TABLE:  "FUNCTION - RESPONSE SPECTRUM - USER"
   Name=UNIFRS   Period=0   Accel=1   FuncDamp=0.05
   Name=UNIFRS   Period=1   Accel=1
 
TABLE:  "FUNCTION - STEADY STATE - USER"
   Name=UNIFSS   Frequency=0   Value=1
   Name=UNIFSS   Frequency=1   Value=1
 
TABLE:  "FUNCTION - TIME HISTORY - USER"
   Name=RAMPTH   Time=0   Value=0
   Name=RAMPTH   Time=1   Value=1
   Name=RAMPTH   Time=4   Value=1
   Name=UNIFTH   Time=0   Value=1
   Name=UNIFTH   Time=1   Value=1
 
TABLE:  "GRID LINES"
   CoordSys=GLOBAL   AxisDir=X   GridID=A   XRYZCoord=-10   LineType=Primary   LineColor=Gray8Dark   Visible=Yes   BubbleLoc=End   AllVisible=Yes   BubbleSize=0.9375
   CoordSys=GLOBAL   AxisDir=X   GridID=B   XRYZCoord=-9   LineType=Primary   LineColor=Gray8Dark   Visible=Yes   BubbleLoc=End
   CoordSys=GLOBAL   AxisDir=X   GridID=C   XRYZCoord=-4.5   LineType=Primary   LineColor=Gray8Dark   Visible=Yes   BubbleLoc=End
   CoordSys=GLOBAL   AxisDir=X   GridID=D   XRYZCoord=0   LineType=Primary   LineColor=Gray8Dark   Visible=Yes   BubbleLoc=End
   CoordSys=GLOBAL   AxisDir=X   GridID=E   XRYZCoord=4.5   LineType=Primary   LineColor=Gray8Dark   Visible=Yes   BubbleLoc=End
   CoordSys=GLOBAL   AxisDir=X   GridID=F   XRYZCoord=9   LineType=Primary   LineColor=Gray8Dark   Visible=Yes   BubbleLoc=End
   CoordSys=GLOBAL   AxisDir=X   GridID=G   XRYZCoord=10   LineType=Primary   LineColor=Gray8Dark   Visible=Yes   BubbleLoc=End
   CoordSys=GLOBAL   AxisDir=Y   GridID=1   XRYZCoord=-5.2   LineType=Primary   LineColor=Gray8Dark   Visible=Yes   BubbleLoc=Start
   CoordSys=GLOBAL   AxisDir=Y   GridID=2   XRYZCoord=-4.2   LineType=Primary   LineColor=Gray8Dark   Visible=Yes   BubbleLoc=Start
   CoordSys=GLOBAL   AxisDir=Y   GridID=3   XRYZCoord=0   LineType=Primary   LineColor=Gray8Dark   Visible=Yes   BubbleLoc=Start
   CoordSys=GLOBAL   AxisDir=Y   GridID=4   XRYZCoord=4.2   LineType=Primary   LineColor=Gray8Dark   Visible=Yes   BubbleLoc=Start
   CoordSys=GLOBAL   AxisDir=Y   GridID=5   XRYZCoord=4.8   LineType=Primary   LineColor=Gray8Dark   Visible=Yes   BubbleLoc=Start
   CoordSys=GLOBAL   AxisDir=Z   GridID=Z1   XRYZCoord=0   LineType=Primary   LineColor=Gray8Dark   Visible=Yes   BubbleLoc=End
   CoordSys=GLOBAL   AxisDir=Z   GridID=Z2   XRYZCoord=13   LineType=Primary   LineColor=Gray8Dark   Visible=Yes   BubbleLoc=End
 
TABLE:  "GROUPS 1 - DEFINITIONS"
   GroupName=ALL   Selection=Yes   SectionCut=Yes   Steel=Yes   Concrete=Yes   Aluminum=Yes   ColdFormed=Yes   Stage=Yes   Bridge=Yes   AutoSeismic=No   AutoWind=No   SelDesSteel=No   SelDesAlum=No   SelDesCold=No   MassWeight=Yes   Color=Red
   GroupName=Pile   Selection=Yes   SectionCut=Yes   Steel=Yes   Concrete=Yes   Aluminum=Yes   ColdFormed=Yes   Stage=Yes   Bridge=Yes   AutoSeismic=No   AutoWind=No   SelDesSteel=No   SelDesAlum=No   SelDesCold=No   MassWeight=Yes   Color=Gray8Dark
   GroupName=DN   Selection=Yes   SectionCut=Yes   Steel=Yes   Concrete=Yes   Aluminum=Yes   ColdFormed=Yes   Stage=Yes   Bridge=Yes   AutoSeismic=No   AutoWind=No   SelDesSteel=No   SelDesAlum=No   SelDesCold=No   MassWeight=Yes   Color=Yellow
   GroupName=Pile_Toe   Selection=Yes   SectionCut=Yes   Steel=Yes   Concrete=Yes   Aluminum=Yes   ColdFormed=Yes   Stage=Yes   Bridge=Yes   AutoSeismic=No   AutoWind=No   SelDesSteel=No   SelDesAlum=No   SelDesCold=No   MassWeight=Yes   Color=Green
   GroupName=Pile_Bend   Selection=Yes   SectionCut=Yes   Steel=Yes   Concrete=Yes   Aluminum=Yes   ColdFormed=Yes   Stage=Yes   Bridge=Yes   AutoSeismic=No   AutoWind=No   SelDesSteel=No   SelDesAlum=No   SelDesCold=No   MassWeight=Yes   Color=Cyan
   GroupName=Beam   Selection=Yes   SectionCut=Yes   Steel=Yes   Concrete=Yes   Aluminum=Yes   ColdFormed=Yes   Stage=Yes   Bridge=Yes   AutoSeismic=No   AutoWind=No   SelDesSteel=No   SelDesAlum=No   SelDesCold=No   MassWeight=Yes   Color=Blue
   GroupName=Piles   Selection=Yes   SectionCut=Yes   Steel=Yes   Concrete=Yes   Aluminum=Yes   ColdFormed=Yes   Stage=Yes   Bridge=Yes   AutoSeismic=No   AutoWind=No   SelDesSteel=No   SelDesAlum=No   SelDesCold=No   MassWeight=Yes   Color=Blue
   GroupName=Beams   Selection=Yes   SectionCut=Yes   Steel=Yes   Concrete=Yes   Aluminum=Yes   ColdFormed=Yes   Stage=Yes   Bridge=Yes   AutoSeismic=No   AutoWind=No   SelDesSteel=No   SelDesAlum=No   SelDesCold=No   MassWeight=Yes   Color=Green
 
TABLE:  "GROUPS 2 - ASSIGNMENTS"
 
TABLE:  "JOINT COORDINATES"
   Joint=57379   CoordSys=GLOBAL   CoordType=Cartesian   XorR=-7.95   Y=-5   Z=0   SpecialJt=No   GUID=235fd8b4-a24b-4bb6-8f95-fc8100d5fba2
   Joint=57380   CoordSys=GLOBAL   CoordType=Cartesian   XorR=-7.95   Y=-3   Z=0   SpecialJt=No   GUID=1024da10-7cb1-46da-834e-346063379150
   Joint=57381   CoordSys=GLOBAL   CoordType=Cartesian   XorR=-2.65   Y=-5   Z=0   SpecialJt=No   GUID=cd3d99ef-673b-416f-b06d-02566568c954
   Joint=57382   CoordSys=GLOBAL   CoordType=Cartesian   XorR=-2.65   Y=-3   Z=0   SpecialJt=No   GUID=0b0c9617-82d2-4adc-a4fe-5490adc2286c
   Joint=57383   CoordSys=GLOBAL   CoordType=Cartesian   XorR=2.65   Y=-5   Z=0   SpecialJt=No   GUID=4e29c45c-75e8-43d9-8722-af53f5d9e35c
   Joint=57384   CoordSys=GLOBAL   CoordType=Cartesian   XorR=2.65   Y=-3   Z=0   SpecialJt=No   GUID=76edd9cc-9e98-4fff-a28d-2483060907ec
   Joint=57385   CoordSys=GLOBAL   CoordType=Cartesian   XorR=7.95   Y=-5   Z=0   SpecialJt=No   GUID=9dd756a8-c3ab-42f0-a55c-a58963538826
   Joint=57386   CoordSys=GLOBAL   CoordType=Cartesian   XorR=7.95   Y=-3   Z=0   SpecialJt=No   GUID=aabc2747-9ee3-4a41-8e75-12846925175e
   Joint=57387   CoordSys=GLOBAL   CoordType=Cartesian   XorR=-7.95   Y=3   Z=0   SpecialJt=No   GUID=7c806a61-5853-4032-94d0-7beb882652f5
   Joint=57388   CoordSys=GLOBAL   CoordType=Cartesian   XorR=-2.65   Y=3   Z=0   SpecialJt=No   GUID=3bad7d65-023a-4f90-917e-2ed9e76af69c
   Joint=57389   CoordSys=GLOBAL   CoordType=Cartesian   XorR=2.65   Y=3   Z=0   SpecialJt=No   GUID=48298f1d-a672-4026-86e9-1c01934dd675
   Joint=57390   CoordSys=GLOBAL   CoordType=Cartesian   XorR=7.95   Y=3   Z=0   SpecialJt=No   GUID=80c2504d-f246-4729-81a7-3a99d4a03e0b
   Joint=57391   CoordSys=GLOBAL   CoordType=Cartesian   XorR=-7.95   Y=5   Z=0   SpecialJt=No   GUID=0965955c-3bd7-48c9-b910-74e72978650c
   Joint=57392   CoordSys=GLOBAL   CoordType=Cartesian   XorR=-2.65   Y=5   Z=0   SpecialJt=No   GUID=098ef42a-4b7e-43cc-8a3f-1915f9d3fe19
   Joint=57393   CoordSys=GLOBAL   CoordType=Cartesian   XorR=2.65   Y=5   Z=0   SpecialJt=No   GUID=21502531-baf2-4a02-ba1b-2b74a8f5fea2
   Joint=57394   CoordSys=GLOBAL   CoordType=Cartesian   XorR=7.95   Y=5   Z=0   SpecialJt=No   GUID=171b5d07-e648-4f6f-aeba-6d5e82321da7
   Joint=57395   CoordSys=GLOBAL   CoordType=Cartesian   XorR=-10   Y=-3   Z=0   SpecialJt=No   GUID=913c1631-26d9-4cce-8e23-cdd615ecb32c
   Joint=57396   CoordSys=GLOBAL   CoordType=Cartesian   XorR=-10   Y=3   Z=0   SpecialJt=No   GUID=2c19a1a9-02d9-40d8-9118-65c498604fa8
   Joint=57397   CoordSys=GLOBAL   CoordType=Cartesian   XorR=10   Y=-3   Z=0   SpecialJt=No   GUID=9a983b42-d3d5-4a8c-bb22-257c88617649
   Joint=57398   CoordSys=GLOBAL   CoordType=Cartesian   XorR=10   Y=3   Z=0   SpecialJt=No   GUID=ce0c005e-6290-4588-8ac9-d57260b1d59e
   Joint=57399   CoordSys=GLOBAL   CoordType=Cartesian   XorR=-7.95   Y=-3   Z=-3   SpecialJt=No   GUID=c46c536c-a298-4703-9489-2bde026e373d
   Joint=57400   CoordSys=GLOBAL   CoordType=Cartesian   XorR=-7.95   Y=-3   Z=-13.4180229476075   SpecialJt=No   GUID=01eb8489-cc54-47e4-9cf8-f461d42e66f1
   Joint=57401   CoordSys=GLOBAL   CoordType=Cartesian   XorR=-7.95   Y=-3   Z=-39   SpecialJt=No   GUID=f115afe3-2452-41f2-8ef8-98cf6e8b3794
   Joint=57402   CoordSys=GLOBAL   CoordType=Cartesian   XorR=-2.65   Y=-3   Z=-3   SpecialJt=No   GUID=c43d1132-1b15-44fd-b251-6451956e869d
   Joint=57403   CoordSys=GLOBAL   CoordType=Cartesian   XorR=-2.65   Y=-3   Z=-13.4180229476075   SpecialJt=No   GUID=17c3fc0e-6f3e-40f9-b1d7-ab3aade2d503
   Joint=57404   CoordSys=GLOBAL   CoordType=Cartesian   XorR=-2.65   Y=-3   Z=-39   SpecialJt=No   GUID=51e9bd63-2d86-4ff1-bafb-997b192d0b25
   Joint=57405   CoordSys=GLOBAL   CoordType=Cartesian   XorR=2.65   Y=-3   Z=-3   SpecialJt=No   GUID=ecb66206-f4de-4336-b5c8-d7d5b98f0ac9
   Joint=57406   CoordSys=GLOBAL   CoordType=Cartesian   XorR=2.65   Y=-3   Z=-13.4180229476075   SpecialJt=No   GUID=eadd27cd-6b23-4c5a-95cd-5aee4beca4e6
   Joint=57407   CoordSys=GLOBAL   CoordType=Cartesian   XorR=2.65   Y=-3   Z=-39   SpecialJt=No   GUID=b1c8218d-abfe-4514-9016-c719c280f13c
   Joint=57408   CoordSys=GLOBAL   CoordType=Cartesian   XorR=7.95   Y=-3   Z=-3   SpecialJt=No   GUID=8a8ba4c0-a1b9-4e94-b537-ec82d07ce207
   Joint=57409   CoordSys=GLOBAL   CoordType=Cartesian   XorR=7.95   Y=-3   Z=-13.4180229476075   SpecialJt=No   GUID=b5597092-45d3-41cd-9d82-73359d70e844
   Joint=57410   CoordSys=GLOBAL   CoordType=Cartesian   XorR=7.95   Y=-3   Z=-39   SpecialJt=No   GUID=0f0760d6-040d-4795-9607-0bccdf96ca14
   Joint=57411   CoordSys=GLOBAL   CoordType=Cartesian   XorR=-7.95   Y=3   Z=-13.4180229476075   SpecialJt=No   GUID=fab04f38-f5dc-4e9c-a42c-75ca54f77553
   Joint=57412   CoordSys=GLOBAL   CoordType=Cartesian   XorR=-7.95   Y=3   Z=-39   SpecialJt=No   GUID=406ccd74-8c16-428d-be64-317286948a68
   Joint=57413   CoordSys=GLOBAL   CoordType=Cartesian   XorR=-2.65   Y=3   Z=-13.4180229476075   SpecialJt=No   GUID=8dddb0d9-07f8-47cb-b812-bdeb4e5f37fe
   Joint=57414   CoordSys=GLOBAL   CoordType=Cartesian   XorR=-2.65   Y=3   Z=-39   SpecialJt=No   GUID=8143ec0d-d631-4f86-ad7e-7277f42be89a
   Joint=57415   CoordSys=GLOBAL   CoordType=Cartesian   XorR=2.65   Y=3   Z=-13.4180229476075   SpecialJt=No   GUID=be3043d2-5a11-42de-8255-5f8051332554
   Joint=57416   CoordSys=GLOBAL   CoordType=Cartesian   XorR=2.65   Y=3   Z=-39   SpecialJt=No   GUID=409bf3c3-4e41-4cdd-96de-a31da7fb6c19
   Joint=57417   CoordSys=GLOBAL   CoordType=Cartesian   XorR=7.95   Y=3   Z=-13.4180229476075   SpecialJt=No   GUID=8398e1ad-22f6-43a0-8cef-eec832b0585c
   Joint=57418   CoordSys=GLOBAL   CoordType=Cartesian   XorR=7.95   Y=3   Z=-39   SpecialJt=No   GUID=49b8ed28-1bf3-4efc-8624-5031ec4f6f4c
   Joint=57419   CoordSys=GLOBAL   CoordType=Cartesian   XorR=-10   Y=-5   Z=0   SpecialJt=No   GUID=10e517a0-29ca-474a-9683-e83557eefe72
   Joint=57420   CoordSys=GLOBAL   CoordType=Cartesian   XorR=10   Y=-5   Z=0   SpecialJt=No   GUID=e95e4a3b-507a-4f13-892e-ec91a1724f1c
   Joint=57421   CoordSys=GLOBAL   CoordType=Cartesian   XorR=-10   Y=5   Z=0   SpecialJt=No   GUID=9c0820f4-7900-4b0c-8a19-61c8654de609
   Joint=57422   CoordSys=GLOBAL   CoordType=Cartesian   XorR=10   Y=5   Z=0   SpecialJt=No   GUID=ddadc0f3-2528-4011-8dce-21d632bb378f
 
TABLE:  "JOINT PATTERN DEFINITIONS"
   Pattern=Default
 
TABLE:  "JOINT RESTRAINT ASSIGNMENTS"
   Joint=57400   U1=Yes   U2=Yes   U3=No   R1=Yes   R2=Yes   R3=Yes
   Joint=57401   U1=No   U2=No   U3=Yes   R1=No   R2=No   R3=No
   Joint=57403   U1=Yes   U2=Yes   U3=No   R1=Yes   R2=Yes   R3=Yes
   Joint=57404   U1=No   U2=No   U3=Yes   R1=No   R2=No   R3=No
   Joint=57406   U1=Yes   U2=Yes   U3=No   R1=Yes   R2=Yes   R3=Yes
   Joint=57407   U1=No   U2=No   U3=Yes   R1=No   R2=No   R3=No
   Joint=57409   U1=Yes   U2=Yes   U3=No   R1=Yes   R2=Yes   R3=Yes
   Joint=57410   U1=No   U2=No   U3=Yes   R1=No   R2=No   R3=No
   Joint=57411   U1=Yes   U2=Yes   U3=No   R1=Yes   R2=Yes   R3=Yes
   Joint=57412   U1=No   U2=No   U3=Yes   R1=No   R2=No   R3=No
   Joint=57413   U1=Yes   U2=Yes   U3=No   R1=Yes   R2=Yes   R3=Yes
   Joint=57414   U1=No   U2=No   U3=Yes   R1=No   R2=No   R3=No
   Joint=57415   U1=Yes   U2=Yes   U3=No   R1=Yes   R2=Yes   R3=Yes
   Joint=57416   U1=No   U2=No   U3=Yes   R1=No   R2=No   R3=No
   Joint=57417   U1=Yes   U2=Yes   U3=No   R1=Yes   R2=Yes   R3=Yes
   Joint=57418   U1=No   U2=No   U3=Yes   R1=No   R2=No   R3=No
 
TABLE:  "LOAD CASE DEFINITIONS"
   Case=DEAD   Type=LinStatic   InitialCond=Zero   DesTypeOpt="Prog Det"   DesignType=Dead   DesActOpt="Prog Det"   DesignAct=Non-Composite   AutoType=None   RunCase=Yes
   Case=MODAL   Type=LinModal   InitialCond=Zero   DesTypeOpt="Prog Det"   DesignType=Other   DesActOpt="Prog Det"   DesignAct=Other   AutoType=None   RunCase=Yes
   Case=LL   Type=LinStatic   InitialCond=Zero   DesTypeOpt="Prog Det"   DesignType=Live   DesActOpt="Prog Det"   DesignAct="Short-Term Composite"   AutoType=None   RunCase=Yes
 
TABLE:  "LOAD PATTERN DEFINITIONS"
   LoadPat=DEAD   DesignType=Dead   SelfWtMult=1
   LoadPat=LL   DesignType=Live   SelfWtMult=0
 
TABLE:  "MASS SOURCE"
   MassSource=MSSSRC1   Elements=Yes   Masses=Yes   Loads=No   IsDefault=Yes
 
TABLE:  "MATERIAL PROPERTIES 01 - GENERAL"
   Material=A706   Type=Rebar   SymType=Uniaxial   TempDepend=No   Color=Gray8Dark   GUID=30185aab-1311-4f4b-9ffe-ddad707d22d9   Notes="ASTM A706 added 8/23/2025 4:27:57 PM"
   Material=BTCT   Type=Concrete   SymType=Isotropic   TempDepend=No   Color=Blue   Notes="Concrete added 24-Feb-23 16:30:01"
   Material=BTCTCOC   Type=Concrete   SymType=Isotropic   TempDepend=No   Color=Blue   Notes="Concrete added 24-Feb-23 16:30:01"
   Material=Steel   Type=Steel   SymType=Isotropic   TempDepend=No   Color=Magenta   GUID=2f952889-4898-4964-97a4-5fb5c5008d33   Notes="Steel added 8/24/2025 2:51:43 PM"
   Material=Tendon   Type=Tendon   SymType=Uniaxial   TempDepend=No   Color=Yellow   GUID=7dfcd093-823e-4b3a-b96f-35d5bcaf456f   Notes="Tendon added 8/24/2025 2:51:43 PM"
 
TABLE:  "MATERIAL PROPERTIES 02 - BASIC MECHANICAL PROPERTIES"
   Material=A706   UnitWeight=7.84904757236607   UnitMass=0.800380070686609   E1=20389019.1580383   A1=1.16999994421006E-05
   Material=BTCT   UnitWeight=2.40276966501002   UnitMass=0.245014307353044   E1=2900000   G12=1208333.33333333   U12=0.2   A1=9.9E-06
   Material=BTCTCOC   UnitWeight=2.40276966501002   UnitMass=0.245014307353044   E1=3800000000   G12=1583333333.33333   U12=0.2   A1=9.9E-06
   Material=Steel   UnitWeight=7.84904757236607   UnitMass=0.800380070686609   E1=20389019.1580383   G12=7841930.44539935   U12=0.3   A1=1.17E-05
   Material=Tendon   UnitWeight=7.84904757236607   UnitMass=0.800380070686609   E1=20037484.3449687   A1=1.16999994421006E-05
 
TABLE:  "MATERIAL PROPERTIES 03A - STEEL DATA"
   Material=Steel   Fy=35153.4813069626   Fu=45699.5256990514   EffFy=38668.8294376589   EffFu=50269.4782689565   SSCurveOpt=Simple   SSHysType=Kinematic   SHard=0.015   SMax=0.11   SRup=0.17   FinalSlope=-0.1   CoupModType="Von Mises"
 
TABLE:  "MATERIAL PROPERTIES 03B - CONCRETE DATA"
   Material=BTCT   Fc=2812.27850455701   eFc=2812.27850455701   LtWtConc=No   SSCurveOpt=Mander   SSHysType=Takeda   SFc=0.002   SCap=0.005   FinalSlope=-0.1   FAngle=0   DAngle=0   CoupModType="Modified Darwin-Pecknold"
   Material=BTCTCOC   Fc=2812.27850455701   eFc=2812.27850455701   LtWtConc=No   SSCurveOpt=Mander   SSHysType=Takeda   SFc=0.002   SCap=0.005   FinalSlope=-0.1   FAngle=0   DAngle=0   CoupModType="Modified Darwin-Pecknold"
 
TABLE:  "MATERIAL PROPERTIES 03E - REBAR DATA"
   Material=A706   Fy=42184.1775683551   Fu=56245.5700911402   EffFy=46402.5953251907   EffFu=61870.1271002542   SSCurveOpt=Simple   SSHysType=Kinematic   SHard=0.011   SCap=0.11   FinalSlope=-0.1   UseCTDef=No   CoupModType="Von Mises"
 
TABLE:  "MATERIAL PROPERTIES 03F - TENDON DATA"
   Material=Tendon   Fy=172322.365366731   Fu=189828.799057598   SSCurveOpt="270 ksi"   SSHysType=Kinematic   FinalSlope=-0.1   CoupModType="Von Mises"
 
TABLE:  "MATERIAL PROPERTIES 03J - COUPLED NONLINEAR VON MISES DATA"
   Material=A706   YieldStress=46402.5953251907   LinIsoHard=No   LinKinHard=No   NLIsoSaHard=No
   Material=Steel   YieldStress=38668.8294376589   LinIsoHard=No   LinKinHard=No   NLIsoSaHard=No
   Material=Tendon   YieldStress=172322.365366731   LinIsoHard=No   LinKinHard=No   NLIsoSaHard=No
 
TABLE:  "MATERIAL PROPERTIES 06 - DAMPING PARAMETERS"
   Material=A706   ModalRatio=0   VisMass=0   VisStiff=0   HysMass=0   HysStiff=0
   Material=BTCT   ModalRatio=0   VisMass=0   VisStiff=0   HysMass=0   HysStiff=0
   Material=BTCTCOC   ModalRatio=0   VisMass=0   VisStiff=0   HysMass=0   HysStiff=0
   Material=Steel   ModalRatio=0   VisMass=0   VisStiff=0   HysMass=0   HysStiff=0
   Material=Tendon   ModalRatio=0   VisMass=0   VisStiff=0   HysMass=0   HysStiff=0
 
TABLE:  "MATERIAL PROPERTIES 09 - ACCEPTANCE CRITERIA"
   Material=A706   IOTens=0.01   LSTens=0.02   CPTens=0.05   IOComp=-0.005   LSComp=-0.01   CPComp=-0.02
   Material=BTCT   IOTens=0.01   LSTens=0.02   CPTens=0.05   IOComp=-0.003   LSComp=-0.006   CPComp=-0.015   IgnoreTens=Yes
   Material=BTCTCOC   IOTens=0.01   LSTens=0.02   CPTens=0.05   IOComp=-0.003   LSComp=-0.006   CPComp=-0.015   IgnoreTens=Yes
   Material=Steel   IOTens=0.01   LSTens=0.02   CPTens=0.05   IOComp=-0.005   LSComp=-0.01   CPComp=-0.02
   Material=Tendon   IOTens=0.015   LSTens=0.023   CPTens=0.03   IOComp=-0.015   LSComp=-0.023   CPComp=-0.03
 
TABLE:  "OPTIONS - COLORS - DISPLAY"
   DeviceType=Screen   Points=Blue   LinesFrame=Blue   LinesFrmDL=Blue   LinesCable=Green   LinesTendon=Green   SpringLinks=Green   Restraints=Green   Releases=Green   Axes=Cyan   Text=Black   ShadowLines=Gray8Dark   GuideLines=Gray8Dark _
        Highlight=Red   Selection=10504778   AreaFillBot=Red   AreaFillTop=16744703   AreaFillSd=Red   AreaEdge=DarkRed   SolidF1=Red   SolidF2=Blue   SolidF3=Green   SolidF4=Yellow   SolidF5=White   SolidF6=Cyan   SolidEdge=DarkRed _
        Floor=Gray4   Background=White   BGLowLeft=White   BGLowRight=White   BGUpRight=White   Darkness=0.5
   DeviceType=Printer   Points=Gray8Dark   LinesFrame=Black   LinesFrmDL=Gray4   LinesCable=Black   LinesTendon=Black   SpringLinks=Gray8Dark   Restraints=Gray8Dark   Releases=Gray4   Axes=Black   Text=Black   ShadowLines=Gray4 _
        GuideLines=Gray4   Highlight=Black   Selection=Black   AreaFillBot=Gray4   AreaFillTop=Gray8Dark   AreaFillSd=Gray4   AreaEdge=Black   SolidF1=Gray1Light   SolidF2=Gray2   SolidF3=Gray3   SolidF4=Gray4   SolidF5=Gray5 _
        SolidF6=Gray6   SolidEdge=Black   Floor=Gray4   Background=White   BGLowLeft=White   BGLowRight=White   BGUpRight=White   Darkness=0.5
   DeviceType="Color Printer"   Points=Blue   LinesFrame=Blue   LinesFrmDL=Blue   LinesCable=Green   LinesTendon=Green   SpringLinks=Green   Restraints=Green   Releases=Green   Axes=Cyan   Text=Black   ShadowLines=Gray8Dark _
        GuideLines=Gray8Dark   Highlight=Red   Selection=10504778   AreaFillBot=Red   AreaFillTop=16744703   AreaFillSd=Red   AreaEdge=DarkRed   SolidF1=Red   SolidF2=Blue   SolidF3=Green   SolidF4=Yellow   SolidF5=White   SolidF6=Cyan _
        SolidEdge=DarkRed   Floor=Gray4   Background=White   BGLowLeft=White   BGLowRight=White   BGUpRight=White   Darkness=0.5
 
TABLE:  "OPTIONS - COLORS - OUTPUT"
   DeviceType=Screen   Contour1=13107400   Contour2=6553828   Contour3=Red   Contour4=16639   Contour5=Orange   Contour6=43775   Contour7=54527   Contour8=Yellow   Contour9=65408   Contour10=Green   Contour11=8453888   Contour12=Cyan _
        Contour13=16755200   Contour14=16733440   Contour15=Blue   Transpare=0.5   Ratio1=Cyan   Ratio2=Green   Ratio3=Yellow   Ratio4=Orange   Ratio5=Red   RatioNotD=Gray4   RatioNotC=Red   RatioVal1=0.5   RatioVal2=0.7   RatioVal3=0.9 _
        RatioVal4=1   DFillPos=Blue   DFillNeg=Red   DFillRPos=Green   DFillRNeg=Green
   DeviceType=Printer   Contour1=Black   Contour2=3158064   Contour3=4210752   Contour4=5263440   Contour5=6316128   Contour6=7368816   Contour7=Gray8Dark   Contour8=Gray7   Contour9=Gray6   Contour10=Gray5   Contour11=Gray4 _
        Contour12=Gray3   Contour13=Gray2   Contour14=Gray1Light   Contour15=White   Transpare=0   Ratio1=Gray2   Ratio2=Gray4   Ratio3=Gray8Dark   Ratio4=4210752   Ratio5=Black   RatioNotD=Gray4   RatioNotC=Black   RatioVal1=0.5 _
        RatioVal2=0.7   RatioVal3=0.9   RatioVal4=1   DFillPos=Gray8Dark   DFillNeg=Gray8Dark   DFillRPos=4210752   DFillRNeg=4210752
   DeviceType="Color Printer"   Contour1=13107400   Contour2=6553828   Contour3=Red   Contour4=16639   Contour5=Orange   Contour6=43775   Contour7=54527   Contour8=Yellow   Contour9=65408   Contour10=Green   Contour11=8453888 _
        Contour12=Cyan   Contour13=16755200   Contour14=16733440   Contour15=Blue   Transpare=0   Ratio1=Cyan   Ratio2=Green   Ratio3=Yellow   Ratio4=Orange   Ratio5=Red   RatioNotD=Gray4   RatioNotC=Red   RatioVal1=0.5   RatioVal2=0.7 _
        RatioVal3=0.9   RatioVal4=1   DFillPos=Blue   DFillNeg=Red   DFillRPos=Green   DFillRNeg=Green
 
TABLE:  "OVERWRITES - CONCRETE DESIGN - CSA-A233-14"
   Frame=62823   DesignSect="Program Determined"   FrameType="Program Determined"   RLLF=0   XLMajor=0   XLMinor=0   XKMajor=0   XKMinor=0   CmMajor=0   CmMinor=0   DbMajor=0   DbMinor=0   DsMajor=0   DsMinor=0   Rd=0   Ro=0   MaxAggSize=0
   Frame=62824   DesignSect="Program Determined"   FrameType="Program Determined"   RLLF=0   XLMajor=0   XLMinor=0   XKMajor=0   XKMinor=0   CmMajor=0   CmMinor=0   DbMajor=0   DbMinor=0   DsMajor=0   DsMinor=0   Rd=0   Ro=0   MaxAggSize=0
   Frame=62825   DesignSect="Program Determined"   FrameType="Program Determined"   RLLF=0   XLMajor=0   XLMinor=0   XKMajor=0   XKMinor=0   CmMajor=0   CmMinor=0   DbMajor=0   DbMinor=0   DsMajor=0   DsMinor=0   Rd=0   Ro=0   MaxAggSize=0
   Frame=62826   DesignSect="Program Determined"   FrameType="Program Determined"   RLLF=0   XLMajor=0   XLMinor=0   XKMajor=0   XKMinor=0   CmMajor=0   CmMinor=0   DbMajor=0   DbMinor=0   DsMajor=0   DsMinor=0   Rd=0   Ro=0   MaxAggSize=0
   Frame=62827   DesignSect="Program Determined"   FrameType="Program Determined"   RLLF=0   XLMajor=0   XLMinor=0   XKMajor=0   XKMinor=0   CmMajor=0   CmMinor=0   DbMajor=0   DbMinor=0   DsMajor=0   DsMinor=0   Rd=0   Ro=0   MaxAggSize=0
   Frame=62828   DesignSect="Program Determined"   FrameType="Program Determined"   RLLF=0   XLMajor=0   XLMinor=0   XKMajor=0   XKMinor=0   CmMajor=0   CmMinor=0   DbMajor=0   DbMinor=0   DsMajor=0   DsMinor=0   Rd=0   Ro=0   MaxAggSize=0
   Frame=62829   DesignSect="Program Determined"   FrameType="Program Determined"   RLLF=0   XLMajor=0   XLMinor=0   XKMajor=0   XKMinor=0   CmMajor=0   CmMinor=0   DbMajor=0   DbMinor=0   DsMajor=0   DsMinor=0   Rd=0   Ro=0   MaxAggSize=0
   Frame=62830   DesignSect="Program Determined"   FrameType="Program Determined"   RLLF=0   XLMajor=0   XLMinor=0   XKMajor=0   XKMinor=0   CmMajor=0   CmMinor=0   DbMajor=0   DbMinor=0   DsMajor=0   DsMinor=0   Rd=0   Ro=0   MaxAggSize=0
   Frame=62831   DesignSect="Program Determined"   FrameType="Program Determined"   RLLF=0   XLMajor=0   XLMinor=0   XKMajor=0   XKMinor=0   CmMajor=0   CmMinor=0   DbMajor=0   DbMinor=0   DsMajor=0   DsMinor=0   Rd=0   Ro=0   MaxAggSize=0
   Frame=62832   DesignSect="Program Determined"   FrameType="Program Determined"   RLLF=0   XLMajor=0   XLMinor=0   XKMajor=0   XKMinor=0   CmMajor=0   CmMinor=0   DbMajor=0   DbMinor=0   DsMajor=0   DsMinor=0   Rd=0   Ro=0   MaxAggSize=0
   Frame=62833   DesignSect="Program Determined"   FrameType="Program Determined"   RLLF=0   XLMajor=0   XLMinor=0   XKMajor=0   XKMinor=0   CmMajor=0   CmMinor=0   DbMajor=0   DbMinor=0   DsMajor=0   DsMinor=0   Rd=0   Ro=0   MaxAggSize=0
   Frame=62834   DesignSect="Program Determined"   FrameType="Program Determined"   RLLF=0   XLMajor=0   XLMinor=0   XKMajor=0   XKMinor=0   CmMajor=0   CmMinor=0   DbMajor=0   DbMinor=0   DsMajor=0   DsMinor=0   Rd=0   Ro=0   MaxAggSize=0
   Frame=62835   DesignSect="Program Determined"   FrameType="Program Determined"   RLLF=0   XLMajor=0   XLMinor=0   XKMajor=0   XKMinor=0   CmMajor=0   CmMinor=0   DbMajor=0   DbMinor=0   DsMajor=0   DsMinor=0   Rd=0   Ro=0   MaxAggSize=0
   Frame=62836   DesignSect="Program Determined"   FrameType="Program Determined"   RLLF=0   XLMajor=0   XLMinor=0   XKMajor=0   XKMinor=0   CmMajor=0   CmMinor=0   DbMajor=0   DbMinor=0   DsMajor=0   DsMinor=0   Rd=0   Ro=0   MaxAggSize=0
   Frame=62837   DesignSect="Program Determined"   FrameType="Program Determined"   RLLF=0   XLMajor=0   XLMinor=0   XKMajor=0   XKMinor=0   CmMajor=0   CmMinor=0   DbMajor=0   DbMinor=0   DsMajor=0   DsMinor=0   Rd=0   Ro=0   MaxAggSize=0
   Frame=62838   DesignSect="Program Determined"   FrameType="Program Determined"   RLLF=0   XLMajor=0   XLMinor=0   XKMajor=0   XKMinor=0   CmMajor=0   CmMinor=0   DbMajor=0   DbMinor=0   DsMajor=0   DsMinor=0   Rd=0   Ro=0   MaxAggSize=0
   Frame=62839   DesignSect="Program Determined"   FrameType="Program Determined"   RLLF=0   XLMajor=0   XLMinor=0   XKMajor=0   XKMinor=0   CmMajor=0   CmMinor=0   DbMajor=0   DbMinor=0   DsMajor=0   DsMinor=0   Rd=0   Ro=0   MaxAggSize=0
   Frame=62840   DesignSect="Program Determined"   FrameType="Program Determined"   RLLF=0   XLMajor=0   XLMinor=0   XKMajor=0   XKMinor=0   CmMajor=0   CmMinor=0   DbMajor=0   DbMinor=0   DsMajor=0   DsMinor=0   Rd=0   Ro=0   MaxAggSize=0
   Frame=62841   DesignSect="Program Determined"   FrameType="Program Determined"   RLLF=0   XLMajor=0   XLMinor=0   XKMajor=0   XKMinor=0   CmMajor=0   CmMinor=0   DbMajor=0   DbMinor=0   DsMajor=0   DsMinor=0   Rd=0   Ro=0   MaxAggSize=0
   Frame=62842   DesignSect="Program Determined"   FrameType="Program Determined"   RLLF=0   XLMajor=0   XLMinor=0   XKMajor=0   XKMinor=0   CmMajor=0   CmMinor=0   DbMajor=0   DbMinor=0   DsMajor=0   DsMinor=0   Rd=0   Ro=0   MaxAggSize=0
# ... 9 like lines cut
 
TABLE:  "PREFERENCES - ALUMINUM DESIGN - AA 2015"
   THDesign=Envelopes   SRatioLimit=1   Provision=ASD   LatFact=1.33333333333333   UseLatFact=No   Bridge=No   OmegaTy=1.65   OmegaTr=1.95   OmegaC=1.65   OmegaBo=1.65   OmegaBr=1.95   OmegaVo=1.65   OmegaVr=1.95
 
TABLE:  "PREFERENCES - COLD FORMED DESIGN - AISI-ASD96"
   THDesign=Envelopes   FrameType="Braced Frame"   SRatioLimit=1   MaxIter=1   OmegaBS=1.67   OmegaBUS=1.67   OmegaBLTB=1.67   OmegaVS=1.67   OmegaVNS=1.5   OmegaT=1.67   OmegaC=1.8
 
TABLE:  "PREFERENCES - CONCRETE DESIGN - CSA-A233-14"
   THDesign=Envelopes   NumCurves=24   NumPoints=11   MinEccen=Yes   BCCDesign=Yes   CTorsion=Yes   PatLLF=0.75   UFLimit=0.95   PhiS=0.85   PhiC=0.65
 
TABLE:  "PREFERENCES - CONCRETE SHELL DESIGN - EUROCODE 2-2004"
   Country="CEN Default"   GammaS=1.15   GammaC=1.5   AlphaCC=1
 
TABLE:  "PREFERENCES - DIMENSIONAL"
   MergeTol=0.001   FineGrid=0.25   Nudge=0.25   SelectTol=3   SnapTol=12   SLineThick=1   PLineThick=4   MaxFont=8   MinFont=3   AutoZoom=10   ShrinkFact=70   TextFileLen=240
 
TABLE:  "PREFERENCES - STEEL DESIGN - AISC 360-10"
   THDesign=Envelopes   FrameType=SMF   PatLLF=0.75   SRatioLimit=0.95   MaxIter=1   SDC=D   SeisCode=No   SeisLoad=No   ImpFactor=1   SystemRho=1   SystemSds=0.5   SystemR=8   SystemCd=5.5   Omega0=3   Provision=LRFD _
        AMethod="Direct Analysis"   SOMethod="General 2nd Order"   SRMethod="Tau-b Fixed"   NLCoeff=0.002   PhiB=0.9   PhiC=0.9   PhiTY=0.9   PhiTF=0.75   PhiV=0.9   PhiVRolledI=1   PhiVT=0.9   PlugWeld=Yes   HSSWelding=ERW   HSSReduceT=No _
        CheckDefl=No   DLRat=120   SDLAndLLRat=120   LLRat=360   TotalRat=240   NetRat=240
 
TABLE:  "PROGRAM CONTROL"
   ProgramName=SAP2000   Version=24.0.0   CurrUnits="Tonf, m, C"   SteelCode="AISC 360-10"   ConcCode="CSA A23.3-14"   AlumCode="AA 2015"   ColdCode=AISI-ASD96   RegenHinge=Yes
 
TABLE:  "PROJECT INFORMATION"
   Item="Company Name"   Data=po
   Item="Client Name"
   Item="Project Name"
   Item="Project Number"
   Item="Model Name"
   Item="Model Description"
   Item="Revision Number"
   Item="Frame Type"
   Item=Engineer
   Item=Checker
   Item=Supervisor
   Item="Issue Code"
   Item="Design Code"
 
TABLE:  "REBAR SIZES"
   RebarID=#2   Area=3.2258E-05   Diameter=0.00635
   RebarID=#3   Area=7.09675996154547E-05   Diameter=0.009525
   RebarID=#4   Area=0.000129032001922727   Diameter=0.0127
   RebarID=#5   Area=0.000199999601538181   Diameter=0.015875
   RebarID=#6   Area=0.000283870398461819   Diameter=0.01905
   RebarID=#7   Area=0.000387096015381813   Diameter=0.022225
   RebarID=#8   Area=0.000509676413843632   Diameter=0.0254
   RebarID=#9   Area=0.00064516   Diameter=0.0286512005329132
   RebarID=#10   Area=0.00081935318769455   Diameter=0.0322579995155334
   RebarID=#11   Area=0.00100644956308365   Diameter=0.0358139991521835
   RebarID=#14   Area=0.00145161   Diameter=0.0430021989583969
   RebarID=#18   Area=0.00258064   Diameter=0.0573277992248535
   RebarID=10M   Area=0.000100000004162606   Diameter=0.0113000003604438
   RebarID=15M   Area=0.000200000008325212   Diameter=0.0160000002402959
   RebarID=20M   Area=0.000300000012487818   Diameter=0.0195000002928606
   RebarID=25M   Area=0.000500000020813031   Diameter=0.0252000011414055
   RebarID=30M   Area=0.000700000029138243   Diameter=0.0299000000675832
   RebarID=35M   Area=0.00100000004162606   Diameter=0.0357000012990997
   RebarID=45M   Area=0.00150000006243909   Diameter=0.0437000014192476
   RebarID=55M   Area=0.00250000010406515   Diameter=0.056400002372922
   RebarID=6d   Area=2.83000004150781E-05   Diameter=0.00600000009011096
   RebarID=8d   Area=5.03000013308514E-05   Diameter=0.00800000012014795
   RebarID=10d   Area=7.85000032676458E-05   Diameter=0.0100000001501849
   RebarID=12d   Area=0.000113000004703745   Diameter=0.0120000001802219
   RebarID=14d   Area=0.000154000006410413   Diameter=0.0140000002102589
   RebarID=16d   Area=0.000201000008366838   Diameter=0.0160000002402959
   RebarID=20d   Area=0.000314000013070583   Diameter=0.0200000003003699
   RebarID=25d   Area=0.000491000020438396   Diameter=0.0250000003754623
   RebarID=26d   Area=0.000531000022103439   Diameter=0.0260000003904808
   RebarID=28d   Area=0.000616000025641654   Diameter=0.0280000004205178
   RebarID=N12   Area=0.000113000004703745   Diameter=0.0120000001802219
   RebarID=N16   Area=0.000201000008366838   Diameter=0.0160000002402959
   RebarID=N20   Area=0.000314000013070583   Diameter=0.0200000003003699
   RebarID=N24   Area=0.00045200001881498   Diameter=0.0240000003604438
   RebarID=N28   Area=0.000616000025641654   Diameter=0.0280000004205178
   RebarID=N32   Area=0.000804000033467353   Diameter=0.0320000004805918
   RebarID=N36   Area=0.00102000004245858   Diameter=0.0360000005406658
 
TABLE:  "SOLID PROPERTY DEFINITIONS"
   SolidProp=Solid1   Material=BTCT   MatAngleA=0   MatAngleB=0   MatAngleC=0   InComp=Yes   Color=Gray8Dark
 
END TABLE DATA
