File D:\ResearchLab\02_Projects\02_Projects\Tap chi XD_SFOA\code\SOO_MPJ\MPJ_Sap\SOO_Cost_W03\MPJ_3.$2k was saved on m/d/yy at h:mm:ss
 
TABLE:  "ACTIVE DEGREES OF FREEDOM"
   UX=Yes   UY=Yes   UZ=Yes   RX=Yes   RY=Yes   RZ=Yes
 
TABLE:  "ANALYSIS OPTIONS"
   Solver=Advanced   SolverProc=Auto   Force32Bit=No   StiffCase=None   GeomMod=None   HingeOpt="In Elements"   NumAThreads=0   MaxFileSize=0   NumDThreads=0   NumRThreads=0   UseMMFiles="Program Determined"   AllowDiff=No
 
TABLE:  "AREA AUTO MESH ASSIGNMENTS"
   Area=236810   MeshType="Number of Elements"   MeshGroup=ALL   Number1=3   Number2=3   LocalEdge=No   LocalFace=No   SuppEdge=No   SuppFace=No   SubMesh=No
   Area=236811   MeshType="Number of Elements"   MeshGroup=ALL   Number1=3   Number2=3   LocalEdge=No   LocalFace=No   SuppEdge=No   SuppFace=No   SubMesh=No
   Area=236812   MeshType="Number of Elements"   MeshGroup=ALL   Number1=3   Number2=3   LocalEdge=No   LocalFace=No   SuppEdge=No   SuppFace=No   SubMesh=No
   Area=236813   MeshType="Number of Elements"   MeshGroup=ALL   Number1=3   Number2=3   LocalEdge=No   LocalFace=No   SuppEdge=No   SuppFace=No   SubMesh=No
   Area=236814   MeshType="Number of Elements"   MeshGroup=ALL   Number1=3   Number2=3   LocalEdge=No   LocalFace=No   SuppEdge=No   SuppFace=No   SubMesh=No
   Area=236815   MeshType="Number of Elements"   MeshGroup=ALL   Number1=3   Number2=3   LocalEdge=No   LocalFace=No   SuppEdge=No   SuppFace=No   SubMesh=No
   Area=236816   MeshType="Number of Elements"   MeshGroup=ALL   Number1=3   Number2=3   LocalEdge=No   LocalFace=No   SuppEdge=No   SuppFace=No   SubMesh=No
   Area=236817   MeshType="Number of Elements"   MeshGroup=ALL   Number1=3   Number2=3   LocalEdge=No   LocalFace=No   SuppEdge=No   SuppFace=No   SubMesh=No
   Area=236818   MeshType="Number of Elements"   MeshGroup=ALL   Number1=3   Number2=3   LocalEdge=No   LocalFace=No   SuppEdge=No   SuppFace=No   SubMesh=No
   Area=236819   MeshType="Number of Elements"   MeshGroup=ALL   Number1=3   Number2=3   LocalEdge=No   LocalFace=No   SuppEdge=No   SuppFace=No   SubMesh=No
   Area=236820   MeshType="Number of Elements"   MeshGroup=ALL   Number1=3   Number2=3   LocalEdge=No   LocalFace=No   SuppEdge=No   SuppFace=No   SubMesh=No
   Area=236821   MeshType="Number of Elements"   MeshGroup=ALL   Number1=3   Number2=3   LocalEdge=No   LocalFace=No   SuppEdge=No   SuppFace=No   SubMesh=No
   Area=236822   MeshType="Number of Elements"   MeshGroup=ALL   Number1=3   Number2=3   LocalEdge=No   LocalFace=No   SuppEdge=No   SuppFace=No   SubMesh=No
   Area=236823   MeshType="Number of Elements"   MeshGroup=ALL   Number1=3   Number2=3   LocalEdge=No   LocalFace=No   SuppEdge=No   SuppFace=No   SubMesh=No
   Area=236824   MeshType="Number of Elements"   MeshGroup=ALL   Number1=3   Number2=3   LocalEdge=No   LocalFace=No   SuppEdge=No   SuppFace=No   SubMesh=No
   Area=236825   MeshType="Number of Elements"   MeshGroup=ALL   Number1=3   Number2=3   LocalEdge=No   LocalFace=No   SuppEdge=No   SuppFace=No   SubMesh=No
   Area=236826   MeshType="Number of Elements"   MeshGroup=ALL   Number1=3   Number2=3   LocalEdge=No   LocalFace=No   SuppEdge=No   SuppFace=No   SubMesh=No
   Area=236827   MeshType="Number of Elements"   MeshGroup=ALL   Number1=3   Number2=3   LocalEdge=No   LocalFace=No   SuppEdge=No   SuppFace=No   SubMesh=No
   Area=236828   MeshType="Number of Elements"   MeshGroup=ALL   Number1=3   Number2=3   LocalEdge=No   LocalFace=No   SuppEdge=No   SuppFace=No   SubMesh=No
   Area=236829   MeshType="Number of Elements"   MeshGroup=ALL   Number1=3   Number2=3   LocalEdge=No   LocalFace=No   SuppEdge=No   SuppFace=No   SubMesh=No
# ... 4 like lines cut
 
TABLE:  "AREA LOADS - UNIFORM"
   Area=236810   LoadPat=LL   CoordSys=GLOBAL   Dir=Gravity   UnifLoad=1.00034158457019
   Area=236811   LoadPat=LL   CoordSys=GLOBAL   Dir=Gravity   UnifLoad=1.00034158457019
   Area=236812   LoadPat=LL   CoordSys=GLOBAL   Dir=Gravity   UnifLoad=1.00034158457019
   Area=236813   LoadPat=LL   CoordSys=GLOBAL   Dir=Gravity   UnifLoad=1.00034158457019
   Area=236814   LoadPat=LL   CoordSys=GLOBAL   Dir=Gravity   UnifLoad=1.00034158457019
   Area=236815   LoadPat=LL   CoordSys=GLOBAL   Dir=Gravity   UnifLoad=1.00034158457019
   Area=236816   LoadPat=LL   CoordSys=GLOBAL   Dir=Gravity   UnifLoad=1.00034158457019
   Area=236817   LoadPat=LL   CoordSys=GLOBAL   Dir=Gravity   UnifLoad=1.00034158457019
   Area=236818   LoadPat=LL   CoordSys=GLOBAL   Dir=Gravity   UnifLoad=1.00034158457019
   Area=236819   LoadPat=LL   CoordSys=GLOBAL   Dir=Gravity   UnifLoad=1.00034158457019
   Area=236820   LoadPat=LL   CoordSys=GLOBAL   Dir=Gravity   UnifLoad=1.00034158457019
   Area=236821   LoadPat=LL   CoordSys=GLOBAL   Dir=Gravity   UnifLoad=1.00034158457019
   Area=236822   LoadPat=LL   CoordSys=GLOBAL   Dir=Gravity   UnifLoad=1.00034158457019
   Area=236823   LoadPat=LL   CoordSys=GLOBAL   Dir=Gravity   UnifLoad=1.00034158457019
   Area=236824   LoadPat=LL   CoordSys=GLOBAL   Dir=Gravity   UnifLoad=1.00034158457019
   Area=236825   LoadPat=LL   CoordSys=GLOBAL   Dir=Gravity   UnifLoad=1.00034158457019
   Area=236826   LoadPat=LL   CoordSys=GLOBAL   Dir=Gravity   UnifLoad=1.00034158457019
   Area=236827   LoadPat=LL   CoordSys=GLOBAL   Dir=Gravity   UnifLoad=1.00034158457019
   Area=236828   LoadPat=LL   CoordSys=GLOBAL   Dir=Gravity   UnifLoad=1.00034158457019
   Area=236829   LoadPat=LL   CoordSys=GLOBAL   Dir=Gravity   UnifLoad=1.00034158457019
# ... 4 like lines cut
 
TABLE:  "AREA SECTION ASSIGNMENTS"
   Area=236810   Section=Deck   MatProp=Default
   Area=236811   Section=Deck   MatProp=Default
   Area=236812   Section=Deck   MatProp=Default
   Area=236813   Section=Deck   MatProp=Default
   Area=236814   Section=Deck   MatProp=Default
   Area=236815   Section=Deck   MatProp=Default
   Area=236816   Section=Deck   MatProp=Default
   Area=236817   Section=Deck   MatProp=Default
   Area=236818   Section=Deck   MatProp=Default
   Area=236819   Section=Deck   MatProp=Default
   Area=236820   Section=Deck   MatProp=Default
   Area=236821   Section=Deck   MatProp=Default
   Area=236822   Section=Deck   MatProp=Default
   Area=236823   Section=Deck   MatProp=Default
   Area=236824   Section=Deck   MatProp=Default
   Area=236825   Section=Deck   MatProp=Default
   Area=236826   Section=Deck   MatProp=Default
   Area=236827   Section=Deck   MatProp=Default
   Area=236828   Section=Deck   MatProp=Default
   Area=236829   Section=Deck   MatProp=Default
# ... 4 like lines cut
 
TABLE:  "AREA SECTION PROPERTIES"
   Section=Deck   Material=BTCT   MatAngle=0   AreaType=Shell   Type=Shell-Thin   DrillDOF=Yes   Thickness=0.3   BendThick=0.3   Color=Green   F11Mod=1   F22Mod=1   F12Mod=1   M11Mod=1   M22Mod=1   M12Mod=1   V13Mod=1   V23Mod=1   MMod=1 _
        WMod=1   Notes="Added 24-Feb-23 16:56:47"
 
TABLE:  "AREA SECTION PROPERTY DESIGN PARAMETERS"
   Section=Deck   RebarMat=None   RebarOpt=Default
 
TABLE:  "AREA SECTION PROPERTY - TIME DEPENDENT"
   Section=Deck   TypeSize=User   AutoSFSize=1   UserValSize=0.1
 
TABLE:  "AUTO COMBINATION OPTION DATA 01 - GENERAL"
   DesignType=Concrete   AutoGen=Yes
 
TABLE:  "AUTO COMBINATION OPTION DATA 02 - USER DATA"
   DesignType=Concrete   LSType=Strength   LCName=DEAD
   DesignType=Concrete   LSType=Strength   LCName=LL
 
TABLE:  "AUTO WAVE 3 - WAVE CHARACTERISTICS - GENERAL"
   WaveChar=Default   WaveType="From Theory"   KinFactor=1   SWaterDepth=45   WaveHeight=18   WavePeriod=12   WaveTheory=Linear
 
TABLE:  "CASE - MODAL 1 - GENERAL"
   Case=MODAL   ModeType=Eigen   MaxNumModes=12   MinNumModes=1   EigenShift=0   EigenCutoff=0   EigenTol=1E-09   AutoShift=Yes
 
TABLE:  "CASE - STATIC 1 - LOAD ASSIGNMENTS"
   Case=DEAD   LoadType="Load pattern"   LoadName=DEAD   LoadSF=1
   Case=LL   LoadType="Load pattern"   LoadName=LL   LoadSF=1
 
TABLE:  "COMBINATION DEFINITIONS"
   ComboName=COMB1   ComboType="Linear Add"   AutoDesign=No   CaseName=DEAD   ScaleFactor=1   SteelDesign=None   ConcDesign=Strength   AlumDesign=None   ColdDesign=None
   ComboName=COMB2   ComboType="Linear Add"   AutoDesign=No   CaseName=DEAD   ScaleFactor=1   SteelDesign=None   ConcDesign=Strength   AlumDesign=None   ColdDesign=None
   ComboName=COMB2   CaseName=LL   ScaleFactor=1
   ComboName=BAO   ComboType=Envelope   AutoDesign=No   CaseName=COMB1   ScaleFactor=1   SteelDesign=None   ConcDesign=Strength   AlumDesign=None   ColdDesign=None
   ComboName=BAO   CaseName=COMB2   ScaleFactor=1
   ComboName=DCON1   ComboType="Linear Add"   AutoDesign=Yes   CaseName=DEAD   ScaleFactor=1.4   SteelDesign=None   ConcDesign=Strength   AlumDesign=None   ColdDesign=None   GUID=bb4fff9a-98b5-44d1-9fde-34d92700a8e9   Notes="Dead Only; Strength"
   ComboName=DCON2   ComboType="Linear Add"   AutoDesign=Yes   CaseName=DEAD   ScaleFactor=1.25   SteelDesign=None   ConcDesign=Strength   AlumDesign=None   ColdDesign=None   GUID=505bcda7-6fac-4dd0-b03e-c591d1ffc6ce   Notes="Dead + Live; Strength"
   ComboName=DCON2   CaseName=LL   ScaleFactor=1.5
 
TABLE:  "CONNECTIVITY - AREA"
   Area=236810   Joint1=694049   Joint2=694010   Joint3=693983   Joint4=693982   GUID=611a43d1-b1be-4879-9707-5046607177c7
   Area=236811   Joint1=693982   Joint2=693983   Joint3=693985   Joint4=693984   GUID=c580ac0b-69d3-4c03-987b-4894a46d99b7
   Area=236812   Joint1=693984   Joint2=693985   Joint3=693987   Joint4=693986   GUID=8492289c-2f1b-4947-a7d5-ecd526fb524d
   Area=236813   Joint1=693986   Joint2=693987   Joint3=693989   Joint4=693988   GUID=149def8b-a27b-4e42-b0ff-87dc61decb16
   Area=236814   Joint1=693988   Joint2=693989   Joint3=693991   Joint4=693990   GUID=6e14c399-c8d5-4f02-8b8f-a72964c528e3
   Area=236815   Joint1=693990   Joint2=693991   Joint3=693993   Joint4=693992   GUID=8d0e1318-a9ad-4527-83a2-b29ca9dde6c4
   Area=236816   Joint1=693992   Joint2=693993   Joint3=693995   Joint4=693994   GUID=624daf37-1fd3-44ff-8244-ee5f10ef4a12
   Area=236817   Joint1=693994   Joint2=693995   Joint3=694012   Joint4=694050   GUID=0955e278-2741-46e5-a00d-7c7c7ceb177b
   Area=236818   Joint1=694010   Joint2=694011   Joint3=693996   Joint4=693983   GUID=a69df88a-0624-4247-a2e9-7c46f6489767
   Area=236819   Joint1=693983   Joint2=693996   Joint3=693997   Joint4=693985   GUID=abef44eb-a2b6-44cc-bff3-2eb3e0f3d25b
   Area=236820   Joint1=693985   Joint2=693997   Joint3=693998   Joint4=693987   GUID=8e2417cc-1685-47ce-807f-970128cb1d0d
   Area=236821   Joint1=693987   Joint2=693998   Joint3=693999   Joint4=693989   GUID=198ce875-2bfe-448b-b98b-cb1b92bb29b3
   Area=236822   Joint1=693989   Joint2=693999   Joint3=694000   Joint4=693991   GUID=9dc3421a-88db-46c2-b2e2-2baeb43fcf29
   Area=236823   Joint1=693991   Joint2=694000   Joint3=694001   Joint4=693993   GUID=dbc14021-ade4-4f75-a89f-955e6e6e9aa3
   Area=236824   Joint1=693993   Joint2=694001   Joint3=694002   Joint4=693995   GUID=afa95032-c3a1-47fe-93f7-f9e4a4dc7566
   Area=236825   Joint1=693995   Joint2=694002   Joint3=694013   Joint4=694012   GUID=e94b531f-d9e0-4874-be18-081144289c19
   Area=236826   Joint1=694011   Joint2=694051   Joint3=694003   Joint4=693996   GUID=ecbf2b20-54ea-4d1b-812a-433a58b92acb
   Area=236827   Joint1=693996   Joint2=694003   Joint3=694004   Joint4=693997   GUID=95481d22-b441-45c6-9122-1eb6e484a3ee
   Area=236828   Joint1=693997   Joint2=694004   Joint3=694005   Joint4=693998   GUID=04e3f613-38ba-4cfd-ace4-a1e9c3fb2912
   Area=236829   Joint1=693998   Joint2=694005   Joint3=694006   Joint4=693999   GUID=bd9a595d-d7fd-4bf5-a9aa-e1e1bcb9057a
   Area=236830   Joint1=693999   Joint2=694006   Joint3=694007   Joint4=694000   GUID=0259be4f-8710-412c-af5c-1e69d594008f
   Area=236831   Joint1=694000   Joint2=694007   Joint3=694008   Joint4=694001   GUID=42aec905-1ea1-45c0-a71e-3b81594be9aa
   Area=236832   Joint1=694001   Joint2=694008   Joint3=694009   Joint4=694002   GUID=8cc92fea-69c4-4432-b699-a4db73c51f87
   Area=236833   Joint1=694002   Joint2=694009   Joint3=694052   Joint4=694013   GUID=4caab9e0-ce06-424b-aa19-7d707b8e050e
 
TABLE:  "CONNECTIVITY - FRAME"
   Frame=777625   JointI=693982   JointJ=693983   IsCurved=No   GUID=95fced59-c1c5-486d-8d90-10b478150619
   Frame=777626   JointI=693984   JointJ=693985   IsCurved=No   GUID=83d6b5dd-f7de-4bdc-b785-c4bba20a7758
   Frame=777627   JointI=693986   JointJ=693987   IsCurved=No   GUID=4c23d283-88e0-4da5-85d0-7ca33ab3077f
   Frame=777628   JointI=693988   JointJ=693989   IsCurved=No   GUID=4470d984-4771-4496-a14e-5fc6f0f35afc
   Frame=777629   JointI=693990   JointJ=693991   IsCurved=No   GUID=da563cdb-8fbc-4b2d-9928-9aa0b6e51130
   Frame=777630   JointI=693992   JointJ=693993   IsCurved=No   GUID=ba5f3134-3995-4386-bfda-54b414c4313b
   Frame=777631   JointI=693994   JointJ=693995   IsCurved=No   GUID=802baaf3-a7eb-4adb-9ef0-999e189350b2
   Frame=777632   JointI=693983   JointJ=693996   IsCurved=No   GUID=2a0dc77b-115b-43f3-8d4e-1dc15633d321
   Frame=777633   JointI=693985   JointJ=693997   IsCurved=No   GUID=eb66f695-beb1-4eb6-99a5-69b285b6a063
   Frame=777634   JointI=693987   JointJ=693998   IsCurved=No   GUID=a5d68f1c-390a-4371-aee3-3d8e5db36c25
   Frame=777635   JointI=693989   JointJ=693999   IsCurved=No   GUID=76df0cbb-aae7-4afe-8ba5-af6f36e9f1cd
   Frame=777636   JointI=693991   JointJ=694000   IsCurved=No   GUID=eb1a1b65-4efe-4614-90ba-1a035047a0e8
   Frame=777637   JointI=693993   JointJ=694001   IsCurved=No   GUID=0daa018f-738a-49f8-aa62-b68592fbc0d2
   Frame=777638   JointI=693995   JointJ=694002   IsCurved=No   GUID=baf36993-f56e-4d74-becb-9e59cccbb70b
   Frame=777639   JointI=693996   JointJ=694003   IsCurved=No   GUID=498d2cb2-c71e-444c-a31d-8f2dd0203c9e
   Frame=777640   JointI=693997   JointJ=694004   IsCurved=No   GUID=70c980d4-7b97-4e3d-8791-5eb879ba93d1
   Frame=777641   JointI=693998   JointJ=694005   IsCurved=No   GUID=4ff0e88d-d930-4681-9785-e77b9bf20ec3
   Frame=777642   JointI=693999   JointJ=694006   IsCurved=No   GUID=61dd042b-027c-4024-ac05-ba312a630d64
   Frame=777643   JointI=694000   JointJ=694007   IsCurved=No   GUID=822de25a-769a-4ce1-a914-d965408d4d6c
   Frame=777644   JointI=694001   JointJ=694008   IsCurved=No   GUID=10ea2bca-c859-4d77-89d5-0282a4ea0917
   Frame=777645   JointI=694002   JointJ=694009   IsCurved=No   GUID=712fb537-8409-4d3a-98e5-d6c0a8e019b3
   Frame=777646   JointI=694010   JointJ=693983   IsCurved=No   GUID=db9088ad-73b5-40a8-bdec-17c820f02fd0
   Frame=777647   JointI=694011   JointJ=693996   IsCurved=No   GUID=6f69f052-d74b-49be-993f-721f65aef98c
   Frame=777648   JointI=693983   JointJ=693985   IsCurved=No   GUID=9f7841d9-b62e-4c93-a70a-eec8b68ea4ef
   Frame=777649   JointI=693996   JointJ=693997   IsCurved=No   GUID=0e678c10-ccd0-4d83-8996-4a3c849aa3bc
   Frame=777650   JointI=693985   JointJ=693987   IsCurved=No   GUID=56b0f5c7-f4a2-4121-8d3a-8732f0e4896f
   Frame=777651   JointI=693997   JointJ=693998   IsCurved=No   GUID=f51aee0c-dd34-460a-a2b6-d823ce879ebe
   Frame=777652   JointI=693987   JointJ=693989   IsCurved=No   GUID=ed698105-b145-4148-8f43-80975bc65044
   Frame=777653   JointI=693998   JointJ=693999   IsCurved=No   GUID=212e79ca-d72f-42a0-b4ff-6b3c7c2fe0ca
   Frame=777654   JointI=693989   JointJ=693991   IsCurved=No   GUID=136407fe-4ebf-41ab-ab07-3911627351bc
   Frame=777655   JointI=693999   JointJ=694000   IsCurved=No   GUID=09ff59bd-7437-4007-ae79-c2f1051aaa4e
   Frame=777656   JointI=693991   JointJ=693993   IsCurved=No   GUID=225d1ef4-0f5e-4f77-b6ff-2de668d381ca
   Frame=777657   JointI=694000   JointJ=694001   IsCurved=No   GUID=42ac2895-b44d-4531-acfc-33512c372ce2
   Frame=777658   JointI=693993   JointJ=693995   IsCurved=No   GUID=e242aa57-a981-498e-aff1-42b5cd91936f
   Frame=777659   JointI=694001   JointJ=694002   IsCurved=No   GUID=4ece0633-a5f0-47ab-ab39-546990ef5e29
   Frame=777660   JointI=693995   JointJ=694012   IsCurved=No   GUID=d97d48c4-95d0-4253-a3a0-4a415e026a37
   Frame=777661   JointI=694002   JointJ=694013   IsCurved=No   GUID=6e3fc473-dd41-4442-8e83-cf69f999d58f
   Frame=777662   JointI=693983   JointJ=694014   IsCurved=No   GUID=dd7a14ae-c288-4018-aaa0-98dbd41666ec
   Frame=777663   JointI=694014   JointJ=694015   IsCurved=No   GUID=044989a2-3f0f-411b-92eb-138e5f69af82
   Frame=777664   JointI=694015   JointJ=694016   IsCurved=No   GUID=d1cd5395-6f6c-4c31-b710-4db86f7fc5fa
   Frame=777665   JointI=693985   JointJ=694017   IsCurved=No   GUID=4aa631a8-10ad-47d7-8091-9f408e4d98dd
   Frame=777666   JointI=694017   JointJ=694018   IsCurved=No   GUID=667ae646-686f-4a27-a63e-ba1d2ace8005
   Frame=777667   JointI=694018   JointJ=694019   IsCurved=No   GUID=8aa1c5cd-00b4-4d1b-8107-02219018725a
   Frame=777668   JointI=693987   JointJ=694020   IsCurved=No   GUID=e8f6bb1c-c222-4169-8311-984aecb1c2a3
   Frame=777669   JointI=694020   JointJ=694021   IsCurved=No   GUID=23e11be9-2ee6-46a2-a4ea-b1b031e39200
   Frame=777670   JointI=694021   JointJ=694022   IsCurved=No   GUID=3993e94c-1c9f-42f4-b8a2-5a8ae1552177
   Frame=777671   JointI=693989   JointJ=694023   IsCurved=No   GUID=40f7e1e4-b8f2-4f6e-b932-56ce22c2a908
   Frame=777672   JointI=694023   JointJ=694024   IsCurved=No   GUID=0f4f1f74-2860-45fb-afc3-351cb7c9e561
   Frame=777673   JointI=694024   JointJ=694025   IsCurved=No   GUID=72784e44-fcfc-41a0-bfee-aa0a038d743e
   Frame=777674   JointI=693991   JointJ=694026   IsCurved=No   GUID=832bfa9f-38f7-4fc3-99f0-ea7f05b0980b
   Frame=777675   JointI=694026   JointJ=694027   IsCurved=No   GUID=bd0c64f1-1e54-4cdf-b5eb-b64e023dc4d3
   Frame=777676   JointI=694027   JointJ=694028   IsCurved=No   GUID=7c55bedf-4688-4230-8c51-a574cabe2cab
   Frame=777677   JointI=693993   JointJ=694029   IsCurved=No   GUID=53e37df7-b7ee-43de-be89-1918dd017263
   Frame=777678   JointI=694029   JointJ=694030   IsCurved=No   GUID=6e385468-128f-4a34-b8bb-0d08061d31cb
   Frame=777679   JointI=694030   JointJ=694031   IsCurved=No   GUID=02e5e53f-0f80-40d5-8956-a4dceced3e55
   Frame=777680   JointI=693995   JointJ=694032   IsCurved=No   GUID=8f708a83-0f40-4bde-aa50-069e5b6b85f8
   Frame=777681   JointI=694032   JointJ=694033   IsCurved=No   GUID=d670a360-d628-4014-bca8-699341881d1c
   Frame=777682   JointI=694033   JointJ=694034   IsCurved=No   GUID=2a7ee95f-2511-4e3d-a6a5-440be863583f
   Frame=777683   JointI=693996   JointJ=694035   IsCurved=No   GUID=3c8c0d0c-a6c0-4546-98b1-786501aa66fd
   Frame=777684   JointI=694035   JointJ=694036   IsCurved=No   GUID=bdb801ef-98db-4034-9f37-7acf553ae072
   Frame=777685   JointI=693997   JointJ=694037   IsCurved=No   GUID=f62dda5a-5861-4520-a895-b330dc3b63a6
   Frame=777686   JointI=694037   JointJ=694038   IsCurved=No   GUID=4479af77-a72c-4a35-b915-b22b573a6762
   Frame=777687   JointI=693998   JointJ=694039   IsCurved=No   GUID=9013285a-4986-4b14-92fc-5899e4594d2d
   Frame=777688   JointI=694039   JointJ=694040   IsCurved=No   GUID=ba8fd3b1-378a-4971-8a00-aac9de79e352
   Frame=777689   JointI=693999   JointJ=694041   IsCurved=No   GUID=cbf26624-883c-4dbb-9718-73d2ba82d2fd
   Frame=777690   JointI=694041   JointJ=694042   IsCurved=No   GUID=9e3eeb37-0729-4fea-ab66-a3184bc8aebe
   Frame=777691   JointI=694000   JointJ=694043   IsCurved=No   GUID=47885f0b-bacd-499a-903a-f8c53bdaf725
   Frame=777692   JointI=694043   JointJ=694044   IsCurved=No   GUID=9f5d8197-b791-406f-ae33-c33bab920821
   Frame=777693   JointI=694001   JointJ=694045   IsCurved=No   GUID=a717cf6e-6df9-45e7-bf76-5d8d7c40f62d
   Frame=777694   JointI=694045   JointJ=694046   IsCurved=No   GUID=c36ac261-c850-49c8-9488-abe65bcbebff
   Frame=777695   JointI=694002   JointJ=694047   IsCurved=No   GUID=f5577dfd-6776-4a28-a79a-0e8242c6b62b
   Frame=777696   JointI=694047   JointJ=694048   IsCurved=No   GUID=f50cc2fe-8a32-4931-9e33-903475fa7a23
   Frame=777697   JointI=694014   JointJ=694017   IsCurved=No   GUID=a3899c3b-4a20-42bb-8ff0-c2b12ebd5074
   Frame=777698   JointI=694017   JointJ=694020   IsCurved=No   GUID=fc8a0338-7401-459b-bf3a-448cf0511b3c
   Frame=777699   JointI=694020   JointJ=694023   IsCurved=No   GUID=b20daf94-36ab-4163-a28e-5b62a29682fb
   Frame=777700   JointI=694023   JointJ=694026   IsCurved=No   GUID=ab8476a4-4827-472f-9357-1806bf2b4fba
   Frame=777701   JointI=694026   JointJ=694029   IsCurved=No   GUID=1327ce14-9ae3-49ef-af6e-8a369dad7464
   Frame=777702   JointI=694029   JointJ=694032   IsCurved=No   GUID=6db7fec9-32c5-4447-8e10-1ee462003395
 
TABLE:  "COORDINATE SYSTEMS"
   Name=GLOBAL   Type=Cartesian   X=0   Y=0   Z=0   AboutZ=0   AboutY=0   AboutX=0
 
TABLE:  "DATABASE DOCUMENTATION"
 
TABLE:  "DATABASE FORMAT TYPES"
   UnitsCurr=Yes   OverrideE=No
 
TABLE:  "FRAME AUTO MESH ASSIGNMENTS"
   Frame=777625   AutoMesh=Yes   AtJoints=Yes   AtFrames=No   NumSegments=0   MaxLength=0   MaxDegrees=0
   Frame=777626   AutoMesh=Yes   AtJoints=Yes   AtFrames=No   NumSegments=0   MaxLength=0   MaxDegrees=0
   Frame=777627   AutoMesh=Yes   AtJoints=Yes   AtFrames=No   NumSegments=0   MaxLength=0   MaxDegrees=0
   Frame=777628   AutoMesh=Yes   AtJoints=Yes   AtFrames=No   NumSegments=0   MaxLength=0   MaxDegrees=0
   Frame=777629   AutoMesh=Yes   AtJoints=Yes   AtFrames=No   NumSegments=0   MaxLength=0   MaxDegrees=0
   Frame=777630   AutoMesh=Yes   AtJoints=Yes   AtFrames=No   NumSegments=0   MaxLength=0   MaxDegrees=0
   Frame=777631   AutoMesh=Yes   AtJoints=Yes   AtFrames=No   NumSegments=0   MaxLength=0   MaxDegrees=0
   Frame=777632   AutoMesh=Yes   AtJoints=Yes   AtFrames=No   NumSegments=0   MaxLength=0   MaxDegrees=0
   Frame=777633   AutoMesh=Yes   AtJoints=Yes   AtFrames=No   NumSegments=0   MaxLength=0   MaxDegrees=0
   Frame=777634   AutoMesh=Yes   AtJoints=Yes   AtFrames=No   NumSegments=0   MaxLength=0   MaxDegrees=0
   Frame=777635   AutoMesh=Yes   AtJoints=Yes   AtFrames=No   NumSegments=0   MaxLength=0   MaxDegrees=0
   Frame=777636   AutoMesh=Yes   AtJoints=Yes   AtFrames=No   NumSegments=0   MaxLength=0   MaxDegrees=0
   Frame=777637   AutoMesh=Yes   AtJoints=Yes   AtFrames=No   NumSegments=0   MaxLength=0   MaxDegrees=0
   Frame=777638   AutoMesh=Yes   AtJoints=Yes   AtFrames=No   NumSegments=0   MaxLength=0   MaxDegrees=0
   Frame=777639   AutoMesh=Yes   AtJoints=Yes   AtFrames=No   NumSegments=0   MaxLength=0   MaxDegrees=0
   Frame=777640   AutoMesh=Yes   AtJoints=Yes   AtFrames=No   NumSegments=0   MaxLength=0   MaxDegrees=0
   Frame=777641   AutoMesh=Yes   AtJoints=Yes   AtFrames=No   NumSegments=0   MaxLength=0   MaxDegrees=0
   Frame=777642   AutoMesh=Yes   AtJoints=Yes   AtFrames=No   NumSegments=0   MaxLength=0   MaxDegrees=0
   Frame=777643   AutoMesh=Yes   AtJoints=Yes   AtFrames=No   NumSegments=0   MaxLength=0   MaxDegrees=0
   Frame=777644   AutoMesh=Yes   AtJoints=Yes   AtFrames=No   NumSegments=0   MaxLength=0   MaxDegrees=0
# ... 58 like lines cut
 
TABLE:  "FRAME DESIGN PROCEDURES"
   Frame=777625   DesignProc="From Material"
   Frame=777626   DesignProc="From Material"
   Frame=777627   DesignProc="From Material"
   Frame=777628   DesignProc="From Material"
   Frame=777629   DesignProc="From Material"
   Frame=777630   DesignProc="From Material"
   Frame=777631   DesignProc="From Material"
   Frame=777632   DesignProc="From Material"
   Frame=777633   DesignProc="From Material"
   Frame=777634   DesignProc="From Material"
   Frame=777635   DesignProc="From Material"
   Frame=777636   DesignProc="From Material"
   Frame=777637   DesignProc="From Material"
   Frame=777638   DesignProc="From Material"
   Frame=777639   DesignProc="From Material"
   Frame=777640   DesignProc="From Material"
   Frame=777641   DesignProc="From Material"
   Frame=777642   DesignProc="From Material"
   Frame=777643   DesignProc="From Material"
   Frame=777644   DesignProc="From Material"
# ... 18 like lines cut
   Frame=777663   DesignProc="No Design"
   Frame=777664   DesignProc="No Design"
   Frame=777665   DesignProc="From Material"
   Frame=777666   DesignProc="No Design"
   Frame=777667   DesignProc="No Design"
   Frame=777668   DesignProc="From Material"
   Frame=777669   DesignProc="No Design"
   Frame=777670   DesignProc="No Design"
   Frame=777671   DesignProc="From Material"
   Frame=777672   DesignProc="No Design"
   Frame=777673   DesignProc="No Design"
   Frame=777674   DesignProc="From Material"
   Frame=777675   DesignProc="No Design"
   Frame=777676   DesignProc="No Design"
   Frame=777677   DesignProc="From Material"
   Frame=777678   DesignProc="No Design"
   Frame=777679   DesignProc="No Design"
   Frame=777680   DesignProc="From Material"
   Frame=777681   DesignProc="No Design"
   Frame=777682   DesignProc="No Design"
   Frame=777683   DesignProc="No Design"
   Frame=777684   DesignProc="No Design"
   Frame=777685   DesignProc="No Design"
   Frame=777686   DesignProc="No Design"
   Frame=777687   DesignProc="No Design"
   Frame=777688   DesignProc="No Design"
   Frame=777689   DesignProc="No Design"
   Frame=777690   DesignProc="No Design"
   Frame=777691   DesignProc="No Design"
   Frame=777692   DesignProc="No Design"
   Frame=777693   DesignProc="No Design"
   Frame=777694   DesignProc="No Design"
   Frame=777695   DesignProc="No Design"
   Frame=777696   DesignProc="No Design"
   Frame=777697   DesignProc="From Material"
   Frame=777698   DesignProc="From Material"
   Frame=777699   DesignProc="From Material"
   Frame=777700   DesignProc="From Material"
   Frame=777701   DesignProc="From Material"
   Frame=777702   DesignProc="From Material"
 
TABLE:  "FRAME LOAD TRANSFER OPTIONS"
   Frame=777625   Transfer=Yes
   Frame=777626   Transfer=Yes
   Frame=777627   Transfer=Yes
   Frame=777628   Transfer=Yes
   Frame=777629   Transfer=Yes
   Frame=777630   Transfer=Yes
   Frame=777631   Transfer=Yes
   Frame=777632   Transfer=Yes
   Frame=777633   Transfer=Yes
   Frame=777634   Transfer=Yes
   Frame=777635   Transfer=Yes
   Frame=777636   Transfer=Yes
   Frame=777637   Transfer=Yes
   Frame=777638   Transfer=Yes
   Frame=777639   Transfer=Yes
   Frame=777640   Transfer=Yes
   Frame=777641   Transfer=Yes
   Frame=777642   Transfer=Yes
   Frame=777643   Transfer=Yes
   Frame=777644   Transfer=Yes
# ... 58 like lines cut
 
TABLE:  "FRAME LOCAL AXES ASSIGNMENTS 1 - TYPICAL"
   Frame=777662   Angle=90
   Frame=777665   Angle=90
   Frame=777668   Angle=90
   Frame=777671   Angle=90
   Frame=777674   Angle=90
   Frame=777677   Angle=90
   Frame=777680   Angle=90
 
TABLE:  "FRAME OUTPUT STATION ASSIGNMENTS"
   Frame=777625   StationType=MaxStaSpcg   MaxStaSpcg=0.5   AddAtElmInt=Yes   AddAtPtLoad=Yes
   Frame=777626   StationType=MaxStaSpcg   MaxStaSpcg=0.5   AddAtElmInt=Yes   AddAtPtLoad=Yes
   Frame=777627   StationType=MaxStaSpcg   MaxStaSpcg=0.5   AddAtElmInt=Yes   AddAtPtLoad=Yes
   Frame=777628   StationType=MaxStaSpcg   MaxStaSpcg=0.5   AddAtElmInt=Yes   AddAtPtLoad=Yes
   Frame=777629   StationType=MaxStaSpcg   MaxStaSpcg=0.5   AddAtElmInt=Yes   AddAtPtLoad=Yes
   Frame=777630   StationType=MaxStaSpcg   MaxStaSpcg=0.5   AddAtElmInt=Yes   AddAtPtLoad=Yes
   Frame=777631   StationType=MaxStaSpcg   MaxStaSpcg=0.5   AddAtElmInt=Yes   AddAtPtLoad=Yes
   Frame=777632   StationType=MaxStaSpcg   MaxStaSpcg=0.5   AddAtElmInt=Yes   AddAtPtLoad=Yes
   Frame=777633   StationType=MaxStaSpcg   MaxStaSpcg=0.5   AddAtElmInt=Yes   AddAtPtLoad=Yes
   Frame=777634   StationType=MaxStaSpcg   MaxStaSpcg=0.5   AddAtElmInt=Yes   AddAtPtLoad=Yes
   Frame=777635   StationType=MaxStaSpcg   MaxStaSpcg=0.5   AddAtElmInt=Yes   AddAtPtLoad=Yes
   Frame=777636   StationType=MaxStaSpcg   MaxStaSpcg=0.5   AddAtElmInt=Yes   AddAtPtLoad=Yes
   Frame=777637   StationType=MaxStaSpcg   MaxStaSpcg=0.5   AddAtElmInt=Yes   AddAtPtLoad=Yes
   Frame=777638   StationType=MaxStaSpcg   MaxStaSpcg=0.5   AddAtElmInt=Yes   AddAtPtLoad=Yes
   Frame=777639   StationType=MaxStaSpcg   MaxStaSpcg=0.5   AddAtElmInt=Yes   AddAtPtLoad=Yes
   Frame=777640   StationType=MaxStaSpcg   MaxStaSpcg=0.5   AddAtElmInt=Yes   AddAtPtLoad=Yes
   Frame=777641   StationType=MaxStaSpcg   MaxStaSpcg=0.5   AddAtElmInt=Yes   AddAtPtLoad=Yes
   Frame=777642   StationType=MaxStaSpcg   MaxStaSpcg=0.5   AddAtElmInt=Yes   AddAtPtLoad=Yes
   Frame=777643   StationType=MaxStaSpcg   MaxStaSpcg=0.5   AddAtElmInt=Yes   AddAtPtLoad=Yes
   Frame=777644   StationType=MaxStaSpcg   MaxStaSpcg=0.5   AddAtElmInt=Yes   AddAtPtLoad=Yes
# ... 17 like lines cut
   Frame=777662   StationType=MinNumSta   MinNumSta=3   AddAtElmInt=Yes   AddAtPtLoad=Yes
   Frame=777663   StationType=MinNumSta   MinNumSta=3   AddAtElmInt=Yes   AddAtPtLoad=Yes
   Frame=777664   StationType=MinNumSta   MinNumSta=3   AddAtElmInt=Yes   AddAtPtLoad=Yes
   Frame=777665   StationType=MinNumSta   MinNumSta=3   AddAtElmInt=Yes   AddAtPtLoad=Yes
   Frame=777666   StationType=MinNumSta   MinNumSta=3   AddAtElmInt=Yes   AddAtPtLoad=Yes
   Frame=777667   StationType=MinNumSta   MinNumSta=3   AddAtElmInt=Yes   AddAtPtLoad=Yes
   Frame=777668   StationType=MinNumSta   MinNumSta=3   AddAtElmInt=Yes   AddAtPtLoad=Yes
   Frame=777669   StationType=MinNumSta   MinNumSta=3   AddAtElmInt=Yes   AddAtPtLoad=Yes
   Frame=777670   StationType=MinNumSta   MinNumSta=3   AddAtElmInt=Yes   AddAtPtLoad=Yes
   Frame=777671   StationType=MinNumSta   MinNumSta=3   AddAtElmInt=Yes   AddAtPtLoad=Yes
   Frame=777672   StationType=MinNumSta   MinNumSta=3   AddAtElmInt=Yes   AddAtPtLoad=Yes
   Frame=777673   StationType=MinNumSta   MinNumSta=3   AddAtElmInt=Yes   AddAtPtLoad=Yes
   Frame=777674   StationType=MinNumSta   MinNumSta=3   AddAtElmInt=Yes   AddAtPtLoad=Yes
   Frame=777675   StationType=MinNumSta   MinNumSta=3   AddAtElmInt=Yes   AddAtPtLoad=Yes
   Frame=777676   StationType=MinNumSta   MinNumSta=3   AddAtElmInt=Yes   AddAtPtLoad=Yes
   Frame=777677   StationType=MinNumSta   MinNumSta=3   AddAtElmInt=Yes   AddAtPtLoad=Yes
   Frame=777678   StationType=MinNumSta   MinNumSta=3   AddAtElmInt=Yes   AddAtPtLoad=Yes
   Frame=777679   StationType=MinNumSta   MinNumSta=3   AddAtElmInt=Yes   AddAtPtLoad=Yes
   Frame=777680   StationType=MinNumSta   MinNumSta=3   AddAtElmInt=Yes   AddAtPtLoad=Yes
   Frame=777681   StationType=MinNumSta   MinNumSta=3   AddAtElmInt=Yes   AddAtPtLoad=Yes
# ... 15 like lines cut
   Frame=777697   StationType=MaxStaSpcg   MaxStaSpcg=0.5   AddAtElmInt=Yes   AddAtPtLoad=Yes
   Frame=777698   StationType=MaxStaSpcg   MaxStaSpcg=0.5   AddAtElmInt=Yes   AddAtPtLoad=Yes
   Frame=777699   StationType=MaxStaSpcg   MaxStaSpcg=0.5   AddAtElmInt=Yes   AddAtPtLoad=Yes
   Frame=777700   StationType=MaxStaSpcg   MaxStaSpcg=0.5   AddAtElmInt=Yes   AddAtPtLoad=Yes
   Frame=777701   StationType=MaxStaSpcg   MaxStaSpcg=0.5   AddAtElmInt=Yes   AddAtPtLoad=Yes
   Frame=777702   StationType=MaxStaSpcg   MaxStaSpcg=0.5   AddAtElmInt=Yes   AddAtPtLoad=Yes
 
TABLE:  "FRAME SECTION ASSIGNMENTS"
   Frame=777625   AutoSelect=N.A.   AnalSect=TB   MatProp=Default
   Frame=777626   AutoSelect=N.A.   AnalSect=TB   MatProp=Default
   Frame=777627   AutoSelect=N.A.   AnalSect=TB   MatProp=Default
   Frame=777628   AutoSelect=N.A.   AnalSect=TB   MatProp=Default
   Frame=777629   AutoSelect=N.A.   AnalSect=TB   MatProp=Default
   Frame=777630   AutoSelect=N.A.   AnalSect=TB   MatProp=Default
   Frame=777631   AutoSelect=N.A.   AnalSect=TB   MatProp=Default
   Frame=777632   AutoSelect=N.A.   AnalSect=TB   MatProp=Default
   Frame=777633   AutoSelect=N.A.   AnalSect=TB   MatProp=Default
   Frame=777634   AutoSelect=N.A.   AnalSect=TB   MatProp=Default
   Frame=777635   AutoSelect=N.A.   AnalSect=TB   MatProp=Default
   Frame=777636   AutoSelect=N.A.   AnalSect=TB   MatProp=Default
   Frame=777637   AutoSelect=N.A.   AnalSect=TB   MatProp=Default
   Frame=777638   AutoSelect=N.A.   AnalSect=TB   MatProp=Default
   Frame=777639   AutoSelect=N.A.   AnalSect=TB   MatProp=Default
   Frame=777640   AutoSelect=N.A.   AnalSect=TB   MatProp=Default
   Frame=777641   AutoSelect=N.A.   AnalSect=TB   MatProp=Default
   Frame=777642   AutoSelect=N.A.   AnalSect=TB   MatProp=Default
   Frame=777643   AutoSelect=N.A.   AnalSect=TB   MatProp=Default
   Frame=777644   AutoSelect=N.A.   AnalSect=TB   MatProp=Default
   Frame=777645   AutoSelect=N.A.   AnalSect=TB   MatProp=Default
   Frame=777646   AutoSelect=N.A.   AnalSect=LB   MatProp=Default
   Frame=777647   AutoSelect=N.A.   AnalSect=LB   MatProp=Default
   Frame=777648   AutoSelect=N.A.   AnalSect=LB   MatProp=Default
   Frame=777649   AutoSelect=N.A.   AnalSect=LB   MatProp=Default
   Frame=777650   AutoSelect=N.A.   AnalSect=LB   MatProp=Default
   Frame=777651   AutoSelect=N.A.   AnalSect=LB   MatProp=Default
   Frame=777652   AutoSelect=N.A.   AnalSect=LB   MatProp=Default
   Frame=777653   AutoSelect=N.A.   AnalSect=LB   MatProp=Default
   Frame=777654   AutoSelect=N.A.   AnalSect=LB   MatProp=Default
   Frame=777655   AutoSelect=N.A.   AnalSect=LB   MatProp=Default
   Frame=777656   AutoSelect=N.A.   AnalSect=LB   MatProp=Default
   Frame=777657   AutoSelect=N.A.   AnalSect=LB   MatProp=Default
   Frame=777658   AutoSelect=N.A.   AnalSect=LB   MatProp=Default
   Frame=777659   AutoSelect=N.A.   AnalSect=LB   MatProp=Default
   Frame=777660   AutoSelect=N.A.   AnalSect=LB   MatProp=Default
   Frame=777661   AutoSelect=N.A.   AnalSect=LB   MatProp=Default
   Frame=777662   AutoSelect=N.A.   AnalSect=EB   MatProp=Default
   Frame=777663   AutoSelect=N.A.   AnalSect=Piles   MatProp=Default
   Frame=777664   AutoSelect=N.A.   AnalSect=Piles   MatProp=Default
   Frame=777665   AutoSelect=N.A.   AnalSect=EB   MatProp=Default
   Frame=777666   AutoSelect=N.A.   AnalSect=Piles   MatProp=Default
   Frame=777667   AutoSelect=N.A.   AnalSect=Piles   MatProp=Default
   Frame=777668   AutoSelect=N.A.   AnalSect=EB   MatProp=Default
   Frame=777669   AutoSelect=N.A.   AnalSect=Piles   MatProp=Default
   Frame=777670   AutoSelect=N.A.   AnalSect=Piles   MatProp=Default
   Frame=777671   AutoSelect=N.A.   AnalSect=EB   MatProp=Default
   Frame=777672   AutoSelect=N.A.   AnalSect=Piles   MatProp=Default
   Frame=777673   AutoSelect=N.A.   AnalSect=Piles   MatProp=Default
   Frame=777674   AutoSelect=N.A.   AnalSect=EB   MatProp=Default
   Frame=777675   AutoSelect=N.A.   AnalSect=Piles   MatProp=Default
   Frame=777676   AutoSelect=N.A.   AnalSect=Piles   MatProp=Default
   Frame=777677   AutoSelect=N.A.   AnalSect=EB   MatProp=Default
   Frame=777678   AutoSelect=N.A.   AnalSect=Piles   MatProp=Default
   Frame=777679   AutoSelect=N.A.   AnalSect=Piles   MatProp=Default
   Frame=777680   AutoSelect=N.A.   AnalSect=EB   MatProp=Default
   Frame=777681   AutoSelect=N.A.   AnalSect=Piles   MatProp=Default
   Frame=777682   AutoSelect=N.A.   AnalSect=Piles   MatProp=Default
   Frame=777683   AutoSelect=N.A.   AnalSect=Piles   MatProp=Default
   Frame=777684   AutoSelect=N.A.   AnalSect=Piles   MatProp=Default
   Frame=777685   AutoSelect=N.A.   AnalSect=Piles   MatProp=Default
   Frame=777686   AutoSelect=N.A.   AnalSect=Piles   MatProp=Default
   Frame=777687   AutoSelect=N.A.   AnalSect=Piles   MatProp=Default
   Frame=777688   AutoSelect=N.A.   AnalSect=Piles   MatProp=Default
   Frame=777689   AutoSelect=N.A.   AnalSect=Piles   MatProp=Default
   Frame=777690   AutoSelect=N.A.   AnalSect=Piles   MatProp=Default
   Frame=777691   AutoSelect=N.A.   AnalSect=Piles   MatProp=Default
   Frame=777692   AutoSelect=N.A.   AnalSect=Piles   MatProp=Default
   Frame=777693   AutoSelect=N.A.   AnalSect=Piles   MatProp=Default
   Frame=777694   AutoSelect=N.A.   AnalSect=Piles   MatProp=Default
   Frame=777695   AutoSelect=N.A.   AnalSect=Piles   MatProp=Default
   Frame=777696   AutoSelect=N.A.   AnalSect=Piles   MatProp=Default
   Frame=777697   AutoSelect=N.A.   AnalSect=EB-1   MatProp=Default
   Frame=777698   AutoSelect=N.A.   AnalSect=EB-1   MatProp=Default
   Frame=777699   AutoSelect=N.A.   AnalSect=EB-1   MatProp=Default
   Frame=777700   AutoSelect=N.A.   AnalSect=EB-1   MatProp=Default
   Frame=777701   AutoSelect=N.A.   AnalSect=EB-1   MatProp=Default
   Frame=777702   AutoSelect=N.A.   AnalSect=EB-1   MatProp=Default
 
TABLE:  "FRAME SECTION PROPERTIES 01 - GENERAL"
   SectionName=EB   Material=BTCT   Shape=Rectangular   t3=1.2   t2=0.6   Area=0.72   TorsConst=0.05932575   I33=0.0864   I22=0.0216   I23=0   AS2=0.6   AS3=0.6   S33Top=0.144   S33Bot=0.144   S22Left=0.072   S22Right=0.072   Z33=0.216 _
        Z22=0.108   R33=0.346410161513775   R22=0.173205080756888   CGOffset3=0   CGOffset2=0   EccV2=0   EccV3=0   Cw=0   Color=Blue   FromFile=No   AMod=1   A2Mod=1   A3Mod=1   JMod=1   I2Mod=1   I3Mod=1   MMod=1   WMod=1
   SectionName=EB-1   Material=BTCT   Shape=Rectangular   t3=0.6   t2=0.6   Area=0.36   TorsConst=0.018252   I33=0.0108   I22=0.0108   I23=0   AS2=0.3   AS3=0.3   S33Top=0.036   S33Bot=0.036   S22Left=0.036   S22Right=0.036   Z33=0.054 _
        Z22=0.054   R33=0.173205080756888   R22=0.173205080756888   CGOffset3=0   CGOffset2=0   EccV2=0   EccV3=0   Cw=0   Color=Green   FromFile=No   AMod=1   A2Mod=1   A3Mod=1   JMod=1   I2Mod=1   I3Mod=1   MMod=1   WMod=1
   SectionName=LB   Material=BTCT   Shape=Rectangular   t3=0.5   t2=0.6   Area=0.3   TorsConst=0.0124024643132716   I33=0.00625   I22=0.009   I23=0   AS2=0.25   AS3=0.25   S33Top=0.025   S33Bot=0.025   S22Left=0.03   S22Right=0.03 _
        Z33=0.0375   Z22=0.045   R33=0.144337567297406   R22=0.173205080756888   CGOffset3=0   CGOffset2=0   EccV2=0   EccV3=0   Cw=0   Color=Gray8Dark   FromFile=No   AMod=1   A2Mod=1   A3Mod=1   JMod=1   I2Mod=1   I3Mod=1   MMod=1   WMod=1
   SectionName=Piles   Material=BTCTCOC   Shape=Pipe   t3=0.35   tw=0.06   Area=0.0546637121724624   TorsConst=0.00119850188938124   I33=0.000599250944690619   I22=0.000599250944690619   I23=0   AS2=0.0281008649327371 _
        AS3=0.0281008649327371   S33Top=0.00342429111251782   S33Bot=0.00342429111251782   S22Left=0.00342429111251782   S22Right=0.00342429111251782   Z33=0.005118   Z22=0.005118   R33=0.10470195795686   R22=0.10470195795686   CGOffset3=0 _
        CGOffset2=0   EccV2=0   EccV3=0   Cw=0   Color=Cyan   FromFile=No   AMod=1   A2Mod=1   A3Mod=1   JMod=1   I2Mod=1   I3Mod=1   MMod=1   WMod=1
   SectionName=TB   Material=BTCT   Shape=Rectangular   t3=0.5   t2=0.6   Area=0.3   TorsConst=0.0124024643132716   I33=0.00625   I22=0.009   I23=0   AS2=0.25   AS3=0.25   S33Top=0.025   S33Bot=0.025   S22Left=0.03   S22Right=0.03 _
        Z33=0.0375   Z22=0.045   R33=0.144337567297406   R22=0.173205080756888   CGOffset3=0   CGOffset2=0   EccV2=0   EccV3=0   Cw=0   Color=Yellow   FromFile=No   AMod=1   A2Mod=1   A3Mod=1   JMod=1   I2Mod=1   I3Mod=1   MMod=1   WMod=1
 
TABLE:  "FRAME SECTION PROPERTIES 02 - CONCRETE COLUMN"
   SectionName=EB   RebarMatL=A706   RebarMatC=A706   ReinfConfig=Rectangular   LatReinf=Ties   Cover=0.05   NumBars3Dir=2   NumBars2Dir=2   BarSizeL=12d   BarSizeC=10d   SpacingC=0.1   NumCBars2=2   NumCBars3=2   ReinfType=Design
   SectionName=EB-1   RebarMatL=A706   RebarMatC=A706   ReinfConfig=Rectangular   LatReinf=Ties   Cover=0.05   NumBars3Dir=2   NumBars2Dir=2   BarSizeL=12d   BarSizeC=10d   SpacingC=0.1   NumCBars2=2   NumCBars3=2   ReinfType=Design
   SectionName=LB   RebarMatL=A706   RebarMatC=A706   ReinfConfig=Rectangular   LatReinf=Ties   Cover=0.05   NumBars3Dir=2   NumBars2Dir=2   BarSizeL=12d   BarSizeC=10d   SpacingC=0.1   NumCBars2=2   NumCBars3=2   ReinfType=Design
   SectionName=TB   RebarMatL=A706   RebarMatC=A706   ReinfConfig=Rectangular   LatReinf=Ties   Cover=0.05   NumBars3Dir=2   NumBars2Dir=2   BarSizeL=12d   BarSizeC=10d   SpacingC=0.1   NumCBars2=2   NumCBars3=2   ReinfType=Design
 
TABLE:  "FRAME SECTION PROPERTIES 13 - TIME DEPENDENT"
   SectionName=EB   TypeSize=Auto   AutoSFSize=1
   SectionName=EB-1   TypeSize=Auto   AutoSFSize=1
   SectionName=LB   TypeSize=Auto   AutoSFSize=1
   SectionName=Piles   TypeSize=Auto   AutoSFSize=1
   SectionName=TB   TypeSize=Auto   AutoSFSize=1
 
TABLE:  "FUNCTION - PLOT FUNCTIONS"
   PlotFunc="Input Energy"   Type=Energy   Component=Input   Mode=All
 
TABLE:  "FUNCTION - POWER SPECTRAL DENSITY - USER"
   Name=UNIFPSD   Frequency=0   Value=1
   Name=UNIFPSD   Frequency=1   Value=1
 
TABLE:  "FUNCTION - RESPONSE SPECTRUM - USER"
   Name=UNIFRS   Period=0   Accel=1   FuncDamp=0.05
   Name=UNIFRS   Period=1   Accel=1
 
TABLE:  "FUNCTION - STEADY STATE - USER"
   Name=UNIFSS   Frequency=0   Value=1
   Name=UNIFSS   Frequency=1   Value=1
 
TABLE:  "FUNCTION - TIME HISTORY - USER"
   Name=RAMPTH   Time=0   Value=0
   Name=RAMPTH   Time=1   Value=1
   Name=RAMPTH   Time=4   Value=1
   Name=UNIFTH   Time=0   Value=1
   Name=UNIFTH   Time=1   Value=1
 
TABLE:  "GRID LINES"
   CoordSys=GLOBAL   AxisDir=X   GridID=A   XRYZCoord=-10   LineType=Primary   LineColor=Gray8Dark   Visible=Yes   BubbleLoc=End   AllVisible=Yes   BubbleSize=0.9375
   CoordSys=GLOBAL   AxisDir=X   GridID=B   XRYZCoord=-9   LineType=Primary   LineColor=Gray8Dark   Visible=Yes   BubbleLoc=End
   CoordSys=GLOBAL   AxisDir=X   GridID=C   XRYZCoord=-4.5   LineType=Primary   LineColor=Gray8Dark   Visible=Yes   BubbleLoc=End
   CoordSys=GLOBAL   AxisDir=X   GridID=D   XRYZCoord=0   LineType=Primary   LineColor=Gray8Dark   Visible=Yes   BubbleLoc=End
   CoordSys=GLOBAL   AxisDir=X   GridID=E   XRYZCoord=4.5   LineType=Primary   LineColor=Gray8Dark   Visible=Yes   BubbleLoc=End
   CoordSys=GLOBAL   AxisDir=X   GridID=F   XRYZCoord=9   LineType=Primary   LineColor=Gray8Dark   Visible=Yes   BubbleLoc=End
   CoordSys=GLOBAL   AxisDir=X   GridID=G   XRYZCoord=10   LineType=Primary   LineColor=Gray8Dark   Visible=Yes   BubbleLoc=End
   CoordSys=GLOBAL   AxisDir=Y   GridID=1   XRYZCoord=-5.2   LineType=Primary   LineColor=Gray8Dark   Visible=Yes   BubbleLoc=Start
   CoordSys=GLOBAL   AxisDir=Y   GridID=2   XRYZCoord=-4.2   LineType=Primary   LineColor=Gray8Dark   Visible=Yes   BubbleLoc=Start
   CoordSys=GLOBAL   AxisDir=Y   GridID=3   XRYZCoord=0   LineType=Primary   LineColor=Gray8Dark   Visible=Yes   BubbleLoc=Start
   CoordSys=GLOBAL   AxisDir=Y   GridID=4   XRYZCoord=4.2   LineType=Primary   LineColor=Gray8Dark   Visible=Yes   BubbleLoc=Start
   CoordSys=GLOBAL   AxisDir=Y   GridID=5   XRYZCoord=4.8   LineType=Primary   LineColor=Gray8Dark   Visible=Yes   BubbleLoc=Start
   CoordSys=GLOBAL   AxisDir=Z   GridID=Z1   XRYZCoord=0   LineType=Primary   LineColor=Gray8Dark   Visible=Yes   BubbleLoc=End
   CoordSys=GLOBAL   AxisDir=Z   GridID=Z2   XRYZCoord=13   LineType=Primary   LineColor=Gray8Dark   Visible=Yes   BubbleLoc=End
 
TABLE:  "GROUPS 1 - DEFINITIONS"
   GroupName=ALL   Selection=Yes   SectionCut=Yes   Steel=Yes   Concrete=Yes   Aluminum=Yes   ColdFormed=Yes   Stage=Yes   Bridge=Yes   AutoSeismic=No   AutoWind=No   SelDesSteel=No   SelDesAlum=No   SelDesCold=No   MassWeight=Yes   Color=Red
   GroupName=Pile   Selection=Yes   SectionCut=Yes   Steel=Yes   Concrete=Yes   Aluminum=Yes   ColdFormed=Yes   Stage=Yes   Bridge=Yes   AutoSeismic=No   AutoWind=No   SelDesSteel=No   SelDesAlum=No   SelDesCold=No   MassWeight=Yes   Color=Gray8Dark
   GroupName=DN   Selection=Yes   SectionCut=Yes   Steel=Yes   Concrete=Yes   Aluminum=Yes   ColdFormed=Yes   Stage=Yes   Bridge=Yes   AutoSeismic=No   AutoWind=No   SelDesSteel=No   SelDesAlum=No   SelDesCold=No   MassWeight=Yes   Color=Yellow
   GroupName=Pile_Toe   Selection=Yes   SectionCut=Yes   Steel=Yes   Concrete=Yes   Aluminum=Yes   ColdFormed=Yes   Stage=Yes   Bridge=Yes   AutoSeismic=No   AutoWind=No   SelDesSteel=No   SelDesAlum=No   SelDesCold=No   MassWeight=Yes   Color=Green
   GroupName=Pile_Bend   Selection=Yes   SectionCut=Yes   Steel=Yes   Concrete=Yes   Aluminum=Yes   ColdFormed=Yes   Stage=Yes   Bridge=Yes   AutoSeismic=No   AutoWind=No   SelDesSteel=No   SelDesAlum=No   SelDesCold=No   MassWeight=Yes   Color=Cyan
   GroupName=Beam   Selection=Yes   SectionCut=Yes   Steel=Yes   Concrete=Yes   Aluminum=Yes   ColdFormed=Yes   Stage=Yes   Bridge=Yes   AutoSeismic=No   AutoWind=No   SelDesSteel=No   SelDesAlum=No   SelDesCold=No   MassWeight=Yes   Color=Blue
   GroupName=Piles   Selection=Yes   SectionCut=Yes   Steel=Yes   Concrete=Yes   Aluminum=Yes   ColdFormed=Yes   Stage=Yes   Bridge=Yes   AutoSeismic=No   AutoWind=No   SelDesSteel=No   SelDesAlum=No   SelDesCold=No   MassWeight=Yes   Color=Yellow
   GroupName=Beams   Selection=Yes   SectionCut=Yes   Steel=Yes   Concrete=Yes   Aluminum=Yes   ColdFormed=Yes   Stage=Yes   Bridge=Yes   AutoSeismic=No   AutoWind=No   SelDesSteel=No   SelDesAlum=No   SelDesCold=No   MassWeight=Yes   Color=Gray8Dark
 
TABLE:  "GROUPS 2 - ASSIGNMENTS"
 
TABLE:  "JOINT COORDINATES"
   Joint=693982   CoordSys=GLOBAL   CoordType=Cartesian   XorR=-9   Y=-5   Z=0   SpecialJt=No   GUID=4aa8f9cb-eff1-4b7d-b8de-f68480a7af84
   Joint=693983   CoordSys=GLOBAL   CoordType=Cartesian   XorR=-9   Y=-3   Z=0   SpecialJt=No   GUID=e91547b2-99e3-4239-b932-0ae1b0113a1b
   Joint=693984   CoordSys=GLOBAL   CoordType=Cartesian   XorR=-6   Y=-5   Z=0   SpecialJt=No   GUID=7e6ff91a-e5de-43df-9a38-ce553bf8c7e8
   Joint=693985   CoordSys=GLOBAL   CoordType=Cartesian   XorR=-6   Y=-3   Z=0   SpecialJt=No   GUID=5910a1ba-dbaf-47a9-b44a-ac3a5ed69c50
   Joint=693986   CoordSys=GLOBAL   CoordType=Cartesian   XorR=-3   Y=-5   Z=0   SpecialJt=No   GUID=74bacc1d-27c5-41a5-8177-71555060a1cb
   Joint=693987   CoordSys=GLOBAL   CoordType=Cartesian   XorR=-3   Y=-3   Z=0   SpecialJt=No   GUID=8532eb1e-83eb-4b60-8a96-daa6630ee919
   Joint=693988   CoordSys=GLOBAL   CoordType=Cartesian   XorR=0   Y=-5   Z=0   SpecialJt=No   GUID=af293c6e-f04e-4042-b5b7-ce296425eedb
   Joint=693989   CoordSys=GLOBAL   CoordType=Cartesian   XorR=0   Y=-3   Z=0   SpecialJt=No   GUID=197a0359-1870-4c3c-b7de-bdbd5e99df5e
   Joint=693990   CoordSys=GLOBAL   CoordType=Cartesian   XorR=3   Y=-5   Z=0   SpecialJt=No   GUID=149cb2a1-8648-4332-b826-2ef2574bc1e4
   Joint=693991   CoordSys=GLOBAL   CoordType=Cartesian   XorR=3   Y=-3   Z=0   SpecialJt=No   GUID=fd04049a-212e-4a8e-bf7b-84cdf98f6ab2
   Joint=693992   CoordSys=GLOBAL   CoordType=Cartesian   XorR=6   Y=-5   Z=0   SpecialJt=No   GUID=917a8f3d-adb8-406c-9f0b-f66b616e438a
   Joint=693993   CoordSys=GLOBAL   CoordType=Cartesian   XorR=6   Y=-3   Z=0   SpecialJt=No   GUID=431d569a-0ac5-49a2-bdb2-9431c11b9de8
   Joint=693994   CoordSys=GLOBAL   CoordType=Cartesian   XorR=9   Y=-5   Z=0   SpecialJt=No   GUID=3e8c2dd2-7290-4aef-8aaa-fbb475c616f8
   Joint=693995   CoordSys=GLOBAL   CoordType=Cartesian   XorR=9   Y=-3   Z=0   SpecialJt=No   GUID=36e31a98-143d-432d-b216-6d96025b4a4d
   Joint=693996   CoordSys=GLOBAL   CoordType=Cartesian   XorR=-9   Y=3   Z=0   SpecialJt=No   GUID=15c324a7-2eec-47d6-ad53-7d73558ac060
   Joint=693997   CoordSys=GLOBAL   CoordType=Cartesian   XorR=-6   Y=3   Z=0   SpecialJt=No   GUID=6a8ecf4d-daf3-4257-9a84-5d1e2a38f119
   Joint=693998   CoordSys=GLOBAL   CoordType=Cartesian   XorR=-3   Y=3   Z=0   SpecialJt=No   GUID=ef73512d-d562-44f4-b35a-48fc29a7a1f3
   Joint=693999   CoordSys=GLOBAL   CoordType=Cartesian   XorR=0   Y=3   Z=0   SpecialJt=No   GUID=157e83ba-150f-438f-8de0-ffbb3417553e
   Joint=694000   CoordSys=GLOBAL   CoordType=Cartesian   XorR=3   Y=3   Z=0   SpecialJt=No   GUID=194bc0d2-82ff-4cc7-8921-4925742bfcef
   Joint=694001   CoordSys=GLOBAL   CoordType=Cartesian   XorR=6   Y=3   Z=0   SpecialJt=No   GUID=572d2a0a-fcbb-4407-9b29-3a5f1413e2cf
   Joint=694002   CoordSys=GLOBAL   CoordType=Cartesian   XorR=9   Y=3   Z=0   SpecialJt=No   GUID=ac63bd8c-a0c9-4383-aae0-14eaf41b8f37
   Joint=694003   CoordSys=GLOBAL   CoordType=Cartesian   XorR=-9   Y=5   Z=0   SpecialJt=No   GUID=af5e9192-fffa-4e13-b081-ffd9e5818c55
   Joint=694004   CoordSys=GLOBAL   CoordType=Cartesian   XorR=-6   Y=5   Z=0   SpecialJt=No   GUID=8ce4fb45-226b-4f08-a914-028b334b2b44
   Joint=694005   CoordSys=GLOBAL   CoordType=Cartesian   XorR=-3   Y=5   Z=0   SpecialJt=No   GUID=27588bf2-ab9d-4016-9ebd-f2456c0dce46
   Joint=694006   CoordSys=GLOBAL   CoordType=Cartesian   XorR=0   Y=5   Z=0   SpecialJt=No   GUID=75c3de2f-50b5-479a-8e3f-adc9e85729dc
   Joint=694007   CoordSys=GLOBAL   CoordType=Cartesian   XorR=3   Y=5   Z=0   SpecialJt=No   GUID=2497bbf0-9ffc-45c1-a989-4cb151a6dfdc
   Joint=694008   CoordSys=GLOBAL   CoordType=Cartesian   XorR=6   Y=5   Z=0   SpecialJt=No   GUID=1b7de63f-2130-422e-a9cf-da2d60143dd3
   Joint=694009   CoordSys=GLOBAL   CoordType=Cartesian   XorR=9   Y=5   Z=0   SpecialJt=No   GUID=558d9095-b81f-408c-a214-972235b92976
   Joint=694010   CoordSys=GLOBAL   CoordType=Cartesian   XorR=-10   Y=-3   Z=0   SpecialJt=No   GUID=fb5b7341-b5ef-4355-a4b2-f2785dd4d94f
   Joint=694011   CoordSys=GLOBAL   CoordType=Cartesian   XorR=-10   Y=3   Z=0   SpecialJt=No   GUID=b3d015fe-845f-4ad7-85d9-0ee12ee93ab2
   Joint=694012   CoordSys=GLOBAL   CoordType=Cartesian   XorR=10   Y=-3   Z=0   SpecialJt=No   GUID=581a359b-b4c5-49ef-98c8-ae2559aace6c
   Joint=694013   CoordSys=GLOBAL   CoordType=Cartesian   XorR=10   Y=3   Z=0   SpecialJt=No   GUID=4203fcea-9c41-41c9-b0e2-43ceaf37eb7a
   Joint=694014   CoordSys=GLOBAL   CoordType=Cartesian   XorR=-9   Y=-3   Z=-3   SpecialJt=No   GUID=04fecb69-f910-4609-8015-d344ca391b8c
   Joint=694015   CoordSys=GLOBAL   CoordType=Cartesian   XorR=-9   Y=-3   Z=-13.694522634329   SpecialJt=No   GUID=d7294985-9d35-4500-809e-4c5d60f31741
   Joint=694016   CoordSys=GLOBAL   CoordType=Cartesian   XorR=-9   Y=-3   Z=-17.9   SpecialJt=No   GUID=abf77829-5558-4c96-8960-9beea2aeb21a
   Joint=694017   CoordSys=GLOBAL   CoordType=Cartesian   XorR=-6   Y=-3   Z=-3   SpecialJt=No   GUID=d5a3d742-f810-45d3-a4fa-27c82253ab8c
   Joint=694018   CoordSys=GLOBAL   CoordType=Cartesian   XorR=-6   Y=-3   Z=-13.694522634329   SpecialJt=No   GUID=a806a6a5-ebe3-4733-9e7a-8f5de2f6157f
   Joint=694019   CoordSys=GLOBAL   CoordType=Cartesian   XorR=-6   Y=-3   Z=-17.9   SpecialJt=No   GUID=f09e3580-0ec1-4162-89c2-863caead16da
   Joint=694020   CoordSys=GLOBAL   CoordType=Cartesian   XorR=-3   Y=-3   Z=-3   SpecialJt=No   GUID=92bd2a2f-aeab-46ec-975f-e2e18e4c3127
   Joint=694021   CoordSys=GLOBAL   CoordType=Cartesian   XorR=-3   Y=-3   Z=-13.694522634329   SpecialJt=No   GUID=a5f5c529-b351-48a8-957a-a48486103b28
   Joint=694022   CoordSys=GLOBAL   CoordType=Cartesian   XorR=-3   Y=-3   Z=-17.9   SpecialJt=No   GUID=dcc12989-12bb-4156-a03c-6047ebb3f18e
   Joint=694023   CoordSys=GLOBAL   CoordType=Cartesian   XorR=0   Y=-3   Z=-3   SpecialJt=No   GUID=656cd1f7-fc7f-48c6-b6bc-17798fa94331
   Joint=694024   CoordSys=GLOBAL   CoordType=Cartesian   XorR=0   Y=-3   Z=-13.694522634329   SpecialJt=No   GUID=f87c556b-90ca-4376-af6f-914d67a51a8f
   Joint=694025   CoordSys=GLOBAL   CoordType=Cartesian   XorR=0   Y=-3   Z=-17.9   SpecialJt=No   GUID=0486999a-59ac-46e0-91dd-bf60d0df6382
   Joint=694026   CoordSys=GLOBAL   CoordType=Cartesian   XorR=3   Y=-3   Z=-3   SpecialJt=No   GUID=b6ee5343-029e-4c4f-8e99-6f3d4d8d33ea
   Joint=694027   CoordSys=GLOBAL   CoordType=Cartesian   XorR=3   Y=-3   Z=-13.694522634329   SpecialJt=No   GUID=56cc870b-0bcc-4cbc-8581-882127c50d1f
   Joint=694028   CoordSys=GLOBAL   CoordType=Cartesian   XorR=3   Y=-3   Z=-17.9   SpecialJt=No   GUID=9a680ccc-7923-49ca-83aa-d1f8fd3dce2e
   Joint=694029   CoordSys=GLOBAL   CoordType=Cartesian   XorR=6   Y=-3   Z=-3   SpecialJt=No   GUID=7fa298d0-5bb5-4fd7-9426-e1963d31c26a
   Joint=694030   CoordSys=GLOBAL   CoordType=Cartesian   XorR=6   Y=-3   Z=-13.694522634329   SpecialJt=No   GUID=82257b15-7267-40c4-9994-25f6b88c59f9
   Joint=694031   CoordSys=GLOBAL   CoordType=Cartesian   XorR=6   Y=-3   Z=-17.9   SpecialJt=No   GUID=2d70e808-ce26-4993-a6c2-0e4483ef1206
   Joint=694032   CoordSys=GLOBAL   CoordType=Cartesian   XorR=9   Y=-3   Z=-3   SpecialJt=No   GUID=9b62fa07-cf8f-4f47-8eb0-c8d7483bd3ab
   Joint=694033   CoordSys=GLOBAL   CoordType=Cartesian   XorR=9   Y=-3   Z=-13.694522634329   SpecialJt=No   GUID=673abe4b-86d0-4054-b3f9-0db88ce0f754
   Joint=694034   CoordSys=GLOBAL   CoordType=Cartesian   XorR=9   Y=-3   Z=-17.9   SpecialJt=No   GUID=86cfe7d6-ea44-4604-903d-a9039f572fcb
   Joint=694035   CoordSys=GLOBAL   CoordType=Cartesian   XorR=-9   Y=3   Z=-13.694522634329   SpecialJt=No   GUID=61776877-a920-45a6-acd9-8cba05ec8c7e
   Joint=694036   CoordSys=GLOBAL   CoordType=Cartesian   XorR=-9   Y=3   Z=-17.9   SpecialJt=No   GUID=5d562d10-6598-41ce-ae9b-353afe250122
   Joint=694037   CoordSys=GLOBAL   CoordType=Cartesian   XorR=-6   Y=3   Z=-13.694522634329   SpecialJt=No   GUID=cbe24389-0dde-46b3-ad61-af3bdb93259d
   Joint=694038   CoordSys=GLOBAL   CoordType=Cartesian   XorR=-6   Y=3   Z=-17.9   SpecialJt=No   GUID=95923e86-cdc7-489c-af03-12f0927dd16b
   Joint=694039   CoordSys=GLOBAL   CoordType=Cartesian   XorR=-3   Y=3   Z=-13.694522634329   SpecialJt=No   GUID=564d5154-d5bf-4965-9a00-4e88247aae6f
   Joint=694040   CoordSys=GLOBAL   CoordType=Cartesian   XorR=-3   Y=3   Z=-17.9   SpecialJt=No   GUID=b6ee4d5d-3b0b-47b5-bd6e-03762e6cda88
   Joint=694041   CoordSys=GLOBAL   CoordType=Cartesian   XorR=0   Y=3   Z=-13.694522634329   SpecialJt=No   GUID=3153a9a5-e588-4015-b0a5-562ae2a162e2
   Joint=694042   CoordSys=GLOBAL   CoordType=Cartesian   XorR=0   Y=3   Z=-17.9   SpecialJt=No   GUID=21081f61-20cf-436b-bdd7-440ddebb6497
   Joint=694043   CoordSys=GLOBAL   CoordType=Cartesian   XorR=3   Y=3   Z=-13.694522634329   SpecialJt=No   GUID=e3011fde-7da9-4770-8b12-f47c5ea7ca9e
   Joint=694044   CoordSys=GLOBAL   CoordType=Cartesian   XorR=3   Y=3   Z=-17.9   SpecialJt=No   GUID=a4a2872c-716d-40a1-bf76-10a6f6dc9793
   Joint=694045   CoordSys=GLOBAL   CoordType=Cartesian   XorR=6   Y=3   Z=-13.694522634329   SpecialJt=No   GUID=2481248b-55a2-4917-87fb-e16603eb2a6a
   Joint=694046   CoordSys=GLOBAL   CoordType=Cartesian   XorR=6   Y=3   Z=-17.9   SpecialJt=No   GUID=9568ad61-1c4d-4b37-b556-1791251dc01b
   Joint=694047   CoordSys=GLOBAL   CoordType=Cartesian   XorR=9   Y=3   Z=-13.694522634329   SpecialJt=No   GUID=e90074e1-2d82-4431-a7e0-4a69163733a8
   Joint=694048   CoordSys=GLOBAL   CoordType=Cartesian   XorR=9   Y=3   Z=-17.9   SpecialJt=No   GUID=59d74720-8b62-4270-a95d-9bfdf5b9a351
   Joint=694049   CoordSys=GLOBAL   CoordType=Cartesian   XorR=-10   Y=-5   Z=0   SpecialJt=No   GUID=f313cd14-223a-4c57-a618-285b077569ec
   Joint=694050   CoordSys=GLOBAL   CoordType=Cartesian   XorR=10   Y=-5   Z=0   SpecialJt=No   GUID=822f9a83-0fd0-4737-99cd-4605c8485184
   Joint=694051   CoordSys=GLOBAL   CoordType=Cartesian   XorR=-10   Y=5   Z=0   SpecialJt=No   GUID=137796f9-02bf-4235-a5b5-ab0d0b1e72bd
   Joint=694052   CoordSys=GLOBAL   CoordType=Cartesian   XorR=10   Y=5   Z=0   SpecialJt=No   GUID=3a217cbc-48cd-4556-9d66-15ababeba726
 
TABLE:  "JOINT PATTERN DEFINITIONS"
   Pattern=Default
 
TABLE:  "JOINT RESTRAINT ASSIGNMENTS"
   Joint=694015   U1=Yes   U2=Yes   U3=No   R1=Yes   R2=Yes   R3=Yes
   Joint=694016   U1=No   U2=No   U3=Yes   R1=No   R2=No   R3=No
   Joint=694018   U1=Yes   U2=Yes   U3=No   R1=Yes   R2=Yes   R3=Yes
   Joint=694019   U1=No   U2=No   U3=Yes   R1=No   R2=No   R3=No
   Joint=694021   U1=Yes   U2=Yes   U3=No   R1=Yes   R2=Yes   R3=Yes
   Joint=694022   U1=No   U2=No   U3=Yes   R1=No   R2=No   R3=No
   Joint=694024   U1=Yes   U2=Yes   U3=No   R1=Yes   R2=Yes   R3=Yes
   Joint=694025   U1=No   U2=No   U3=Yes   R1=No   R2=No   R3=No
   Joint=694027   U1=Yes   U2=Yes   U3=No   R1=Yes   R2=Yes   R3=Yes
   Joint=694028   U1=No   U2=No   U3=Yes   R1=No   R2=No   R3=No
   Joint=694030   U1=Yes   U2=Yes   U3=No   R1=Yes   R2=Yes   R3=Yes
   Joint=694031   U1=No   U2=No   U3=Yes   R1=No   R2=No   R3=No
   Joint=694033   U1=Yes   U2=Yes   U3=No   R1=Yes   R2=Yes   R3=Yes
   Joint=694034   U1=No   U2=No   U3=Yes   R1=No   R2=No   R3=No
   Joint=694035   U1=Yes   U2=Yes   U3=No   R1=Yes   R2=Yes   R3=Yes
   Joint=694036   U1=No   U2=No   U3=Yes   R1=No   R2=No   R3=No
   Joint=694037   U1=Yes   U2=Yes   U3=No   R1=Yes   R2=Yes   R3=Yes
   Joint=694038   U1=No   U2=No   U3=Yes   R1=No   R2=No   R3=No
   Joint=694039   U1=Yes   U2=Yes   U3=No   R1=Yes   R2=Yes   R3=Yes
   Joint=694040   U1=No   U2=No   U3=Yes   R1=No   R2=No   R3=No
   Joint=694041   U1=Yes   U2=Yes   U3=No   R1=Yes   R2=Yes   R3=Yes
   Joint=694042   U1=No   U2=No   U3=Yes   R1=No   R2=No   R3=No
   Joint=694043   U1=Yes   U2=Yes   U3=No   R1=Yes   R2=Yes   R3=Yes
   Joint=694044   U1=No   U2=No   U3=Yes   R1=No   R2=No   R3=No
   Joint=694045   U1=Yes   U2=Yes   U3=No   R1=Yes   R2=Yes   R3=Yes
   Joint=694046   U1=No   U2=No   U3=Yes   R1=No   R2=No   R3=No
   Joint=694047   U1=Yes   U2=Yes   U3=No   R1=Yes   R2=Yes   R3=Yes
   Joint=694048   U1=No   U2=No   U3=Yes   R1=No   R2=No   R3=No
 
TABLE:  "LOAD CASE DEFINITIONS"
   Case=DEAD   Type=LinStatic   InitialCond=Zero   DesTypeOpt="Prog Det"   DesignType=Dead   DesActOpt="Prog Det"   DesignAct=Non-Composite   AutoType=None   RunCase=Yes
   Case=MODAL   Type=LinModal   InitialCond=Zero   DesTypeOpt="Prog Det"   DesignType=Other   DesActOpt="Prog Det"   DesignAct=Other   AutoType=None   RunCase=Yes
   Case=LL   Type=LinStatic   InitialCond=Zero   DesTypeOpt="Prog Det"   DesignType=Live   DesActOpt="Prog Det"   DesignAct="Short-Term Composite"   AutoType=None   RunCase=Yes
 
TABLE:  "LOAD PATTERN DEFINITIONS"
   LoadPat=DEAD   DesignType=Dead   SelfWtMult=1
   LoadPat=LL   DesignType=Live   SelfWtMult=0
 
TABLE:  "MASS SOURCE"
   MassSource=MSSSRC1   Elements=Yes   Masses=Yes   Loads=No   IsDefault=Yes
 
TABLE:  "MATERIAL PROPERTIES 01 - GENERAL"
   Material=A706   Type=Rebar   SymType=Uniaxial   TempDepend=No   Color=Gray8Dark   GUID=30185aab-1311-4f4b-9ffe-ddad707d22d9   Notes="ASTM A706 added 8/23/2025 4:27:57 PM"
   Material=BTCT   Type=Concrete   SymType=Isotropic   TempDepend=No   Color=Blue   Notes="Concrete added 24-Feb-23 16:30:01"
   Material=BTCTCOC   Type=Concrete   SymType=Isotropic   TempDepend=No   Color=Blue   Notes="Concrete added 24-Feb-23 16:30:01"
   Material=Steel   Type=Steel   SymType=Isotropic   TempDepend=No   Color=Magenta   GUID=2f952889-4898-4964-97a4-5fb5c5008d33   Notes="Steel added 8/24/2025 2:51:43 PM"
   Material=Tendon   Type=Tendon   SymType=Uniaxial   TempDepend=No   Color=Yellow   GUID=7dfcd093-823e-4b3a-b96f-35d5bcaf456f   Notes="Tendon added 8/24/2025 2:51:43 PM"
 
TABLE:  "MATERIAL PROPERTIES 02 - BASIC MECHANICAL PROPERTIES"
   Material=A706   UnitWeight=7.84904757236607   UnitMass=0.800380070686609   E1=20389019.1580383   A1=1.16999994421006E-05
   Material=BTCT   UnitWeight=2.40276966501002   UnitMass=0.245014307353044   E1=2900000   G12=1208333.33333333   U12=0.2   A1=9.9E-06
   Material=BTCTCOC   UnitWeight=2.40276966501002   UnitMass=0.245014307353044   E1=3800000000   G12=1583333333.33333   U12=0.2   A1=9.9E-06
   Material=Steel   UnitWeight=7.84904757236607   UnitMass=0.800380070686609   E1=20389019.1580383   G12=7841930.44539935   U12=0.3   A1=1.17E-05
   Material=Tendon   UnitWeight=7.84904757236607   UnitMass=0.800380070686609   E1=20037484.3449687   A1=1.16999994421006E-05
 
TABLE:  "MATERIAL PROPERTIES 03A - STEEL DATA"
   Material=Steel   Fy=35153.4813069626   Fu=45699.5256990514   EffFy=38668.8294376589   EffFu=50269.4782689565   SSCurveOpt=Simple   SSHysType=Kinematic   SHard=0.015   SMax=0.11   SRup=0.17   FinalSlope=-0.1   CoupModType="Von Mises"
 
TABLE:  "MATERIAL PROPERTIES 03B - CONCRETE DATA"
   Material=BTCT   Fc=2812.27850455701   eFc=2812.27850455701   LtWtConc=No   SSCurveOpt=Mander   SSHysType=Takeda   SFc=0.002   SCap=0.005   FinalSlope=-0.1   FAngle=0   DAngle=0   CoupModType="Modified Darwin-Pecknold"
   Material=BTCTCOC   Fc=2812.27850455701   eFc=2812.27850455701   LtWtConc=No   SSCurveOpt=Mander   SSHysType=Takeda   SFc=0.002   SCap=0.005   FinalSlope=-0.1   FAngle=0   DAngle=0   CoupModType="Modified Darwin-Pecknold"
 
TABLE:  "MATERIAL PROPERTIES 03E - REBAR DATA"
   Material=A706   Fy=42184.1775683551   Fu=56245.5700911402   EffFy=46402.5953251907   EffFu=61870.1271002542   SSCurveOpt=Simple   SSHysType=Kinematic   SHard=0.011   SCap=0.11   FinalSlope=-0.1   UseCTDef=No   CoupModType="Von Mises"
 
TABLE:  "MATERIAL PROPERTIES 03F - TENDON DATA"
   Material=Tendon   Fy=172322.365366731   Fu=189828.799057598   SSCurveOpt="270 ksi"   SSHysType=Kinematic   FinalSlope=-0.1   CoupModType="Von Mises"
 
TABLE:  "MATERIAL PROPERTIES 03J - COUPLED NONLINEAR VON MISES DATA"
   Material=A706   YieldStress=46402.5953251907   LinIsoHard=No   LinKinHard=No   NLIsoSaHard=No
   Material=Steel   YieldStress=38668.8294376589   LinIsoHard=No   LinKinHard=No   NLIsoSaHard=No
   Material=Tendon   YieldStress=172322.365366731   LinIsoHard=No   LinKinHard=No   NLIsoSaHard=No
 
TABLE:  "MATERIAL PROPERTIES 06 - DAMPING PARAMETERS"
   Material=A706   ModalRatio=0   VisMass=0   VisStiff=0   HysMass=0   HysStiff=0
   Material=BTCT   ModalRatio=0   VisMass=0   VisStiff=0   HysMass=0   HysStiff=0
   Material=BTCTCOC   ModalRatio=0   VisMass=0   VisStiff=0   HysMass=0   HysStiff=0
   Material=Steel   ModalRatio=0   VisMass=0   VisStiff=0   HysMass=0   HysStiff=0
   Material=Tendon   ModalRatio=0   VisMass=0   VisStiff=0   HysMass=0   HysStiff=0
 
TABLE:  "MATERIAL PROPERTIES 09 - ACCEPTANCE CRITERIA"
   Material=A706   IOTens=0.01   LSTens=0.02   CPTens=0.05   IOComp=-0.005   LSComp=-0.01   CPComp=-0.02
   Material=BTCT   IOTens=0.01   LSTens=0.02   CPTens=0.05   IOComp=-0.003   LSComp=-0.006   CPComp=-0.015   IgnoreTens=Yes
   Material=BTCTCOC   IOTens=0.01   LSTens=0.02   CPTens=0.05   IOComp=-0.003   LSComp=-0.006   CPComp=-0.015   IgnoreTens=Yes
   Material=Steel   IOTens=0.01   LSTens=0.02   CPTens=0.05   IOComp=-0.005   LSComp=-0.01   CPComp=-0.02
   Material=Tendon   IOTens=0.015   LSTens=0.023   CPTens=0.03   IOComp=-0.015   LSComp=-0.023   CPComp=-0.03
 
TABLE:  "OPTIONS - COLORS - DISPLAY"
   DeviceType=Screen   Points=Blue   LinesFrame=Blue   LinesFrmDL=Blue   LinesCable=Green   LinesTendon=Green   SpringLinks=Green   Restraints=Green   Releases=Green   Axes=Cyan   Text=Black   ShadowLines=Gray8Dark   GuideLines=Gray8Dark _
        Highlight=Red   Selection=10504778   AreaFillBot=Red   AreaFillTop=16744703   AreaFillSd=Red   AreaEdge=DarkRed   SolidF1=Red   SolidF2=Blue   SolidF3=Green   SolidF4=Yellow   SolidF5=White   SolidF6=Cyan   SolidEdge=DarkRed _
        Floor=Gray4   Background=White   BGLowLeft=White   BGLowRight=White   BGUpRight=White   Darkness=0.5
   DeviceType=Printer   Points=Gray8Dark   LinesFrame=Black   LinesFrmDL=Gray4   LinesCable=Black   LinesTendon=Black   SpringLinks=Gray8Dark   Restraints=Gray8Dark   Releases=Gray4   Axes=Black   Text=Black   ShadowLines=Gray4 _
        GuideLines=Gray4   Highlight=Black   Selection=Black   AreaFillBot=Gray4   AreaFillTop=Gray8Dark   AreaFillSd=Gray4   AreaEdge=Black   SolidF1=Gray1Light   SolidF2=Gray2   SolidF3=Gray3   SolidF4=Gray4   SolidF5=Gray5 _
        SolidF6=Gray6   SolidEdge=Black   Floor=Gray4   Background=White   BGLowLeft=White   BGLowRight=White   BGUpRight=White   Darkness=0.5
   DeviceType="Color Printer"   Points=Blue   LinesFrame=Blue   LinesFrmDL=Blue   LinesCable=Green   LinesTendon=Green   SpringLinks=Green   Restraints=Green   Releases=Green   Axes=Cyan   Text=Black   ShadowLines=Gray8Dark _
        GuideLines=Gray8Dark   Highlight=Red   Selection=10504778   AreaFillBot=Red   AreaFillTop=16744703   AreaFillSd=Red   AreaEdge=DarkRed   SolidF1=Red   SolidF2=Blue   SolidF3=Green   SolidF4=Yellow   SolidF5=White   SolidF6=Cyan _
        SolidEdge=DarkRed   Floor=Gray4   Background=White   BGLowLeft=White   BGLowRight=White   BGUpRight=White   Darkness=0.5
 
TABLE:  "OPTIONS - COLORS - OUTPUT"
   DeviceType=Screen   Contour1=13107400   Contour2=6553828   Contour3=Red   Contour4=16639   Contour5=Orange   Contour6=43775   Contour7=54527   Contour8=Yellow   Contour9=65408   Contour10=Green   Contour11=8453888   Contour12=Cyan _
        Contour13=16755200   Contour14=16733440   Contour15=Blue   Transpare=0.5   Ratio1=Cyan   Ratio2=Green   Ratio3=Yellow   Ratio4=Orange   Ratio5=Red   RatioNotD=Gray4   RatioNotC=Red   RatioVal1=0.5   RatioVal2=0.7   RatioVal3=0.9 _
        RatioVal4=1   DFillPos=Blue   DFillNeg=Red   DFillRPos=Green   DFillRNeg=Green
   DeviceType=Printer   Contour1=Black   Contour2=3158064   Contour3=4210752   Contour4=5263440   Contour5=6316128   Contour6=7368816   Contour7=Gray8Dark   Contour8=Gray7   Contour9=Gray6   Contour10=Gray5   Contour11=Gray4 _
        Contour12=Gray3   Contour13=Gray2   Contour14=Gray1Light   Contour15=White   Transpare=0   Ratio1=Gray2   Ratio2=Gray4   Ratio3=Gray8Dark   Ratio4=4210752   Ratio5=Black   RatioNotD=Gray4   RatioNotC=Black   RatioVal1=0.5 _
        RatioVal2=0.7   RatioVal3=0.9   RatioVal4=1   DFillPos=Gray8Dark   DFillNeg=Gray8Dark   DFillRPos=4210752   DFillRNeg=4210752
   DeviceType="Color Printer"   Contour1=13107400   Contour2=6553828   Contour3=Red   Contour4=16639   Contour5=Orange   Contour6=43775   Contour7=54527   Contour8=Yellow   Contour9=65408   Contour10=Green   Contour11=8453888 _
        Contour12=Cyan   Contour13=16755200   Contour14=16733440   Contour15=Blue   Transpare=0   Ratio1=Cyan   Ratio2=Green   Ratio3=Yellow   Ratio4=Orange   Ratio5=Red   RatioNotD=Gray4   RatioNotC=Red   RatioVal1=0.5   RatioVal2=0.7 _
        RatioVal3=0.9   RatioVal4=1   DFillPos=Blue   DFillNeg=Red   DFillRPos=Green   DFillRNeg=Green
 
TABLE:  "OVERWRITES - CONCRETE DESIGN - CSA-A233-14"
   Frame=777625   DesignSect="Program Determined"   FrameType="Program Determined"   RLLF=0   XLMajor=0   XLMinor=0   XKMajor=0   XKMinor=0   CmMajor=0   CmMinor=0   DbMajor=0   DbMinor=0   DsMajor=0   DsMinor=0   Rd=0   Ro=0   MaxAggSize=0
   Frame=777626   DesignSect="Program Determined"   FrameType="Program Determined"   RLLF=0   XLMajor=0   XLMinor=0   XKMajor=0   XKMinor=0   CmMajor=0   CmMinor=0   DbMajor=0   DbMinor=0   DsMajor=0   DsMinor=0   Rd=0   Ro=0   MaxAggSize=0
   Frame=777627   DesignSect="Program Determined"   FrameType="Program Determined"   RLLF=0   XLMajor=0   XLMinor=0   XKMajor=0   XKMinor=0   CmMajor=0   CmMinor=0   DbMajor=0   DbMinor=0   DsMajor=0   DsMinor=0   Rd=0   Ro=0   MaxAggSize=0
   Frame=777628   DesignSect="Program Determined"   FrameType="Program Determined"   RLLF=0   XLMajor=0   XLMinor=0   XKMajor=0   XKMinor=0   CmMajor=0   CmMinor=0   DbMajor=0   DbMinor=0   DsMajor=0   DsMinor=0   Rd=0   Ro=0   MaxAggSize=0
   Frame=777629   DesignSect="Program Determined"   FrameType="Program Determined"   RLLF=0   XLMajor=0   XLMinor=0   XKMajor=0   XKMinor=0   CmMajor=0   CmMinor=0   DbMajor=0   DbMinor=0   DsMajor=0   DsMinor=0   Rd=0   Ro=0   MaxAggSize=0
   Frame=777630   DesignSect="Program Determined"   FrameType="Program Determined"   RLLF=0   XLMajor=0   XLMinor=0   XKMajor=0   XKMinor=0   CmMajor=0   CmMinor=0   DbMajor=0   DbMinor=0   DsMajor=0   DsMinor=0   Rd=0   Ro=0   MaxAggSize=0
   Frame=777631   DesignSect="Program Determined"   FrameType="Program Determined"   RLLF=0   XLMajor=0   XLMinor=0   XKMajor=0   XKMinor=0   CmMajor=0   CmMinor=0   DbMajor=0   DbMinor=0   DsMajor=0   DsMinor=0   Rd=0   Ro=0   MaxAggSize=0
   Frame=777632   DesignSect="Program Determined"   FrameType="Program Determined"   RLLF=0   XLMajor=0   XLMinor=0   XKMajor=0   XKMinor=0   CmMajor=0   CmMinor=0   DbMajor=0   DbMinor=0   DsMajor=0   DsMinor=0   Rd=0   Ro=0   MaxAggSize=0
   Frame=777633   DesignSect="Program Determined"   FrameType="Program Determined"   RLLF=0   XLMajor=0   XLMinor=0   XKMajor=0   XKMinor=0   CmMajor=0   CmMinor=0   DbMajor=0   DbMinor=0   DsMajor=0   DsMinor=0   Rd=0   Ro=0   MaxAggSize=0
   Frame=777634   DesignSect="Program Determined"   FrameType="Program Determined"   RLLF=0   XLMajor=0   XLMinor=0   XKMajor=0   XKMinor=0   CmMajor=0   CmMinor=0   DbMajor=0   DbMinor=0   DsMajor=0   DsMinor=0   Rd=0   Ro=0   MaxAggSize=0
   Frame=777635   DesignSect="Program Determined"   FrameType="Program Determined"   RLLF=0   XLMajor=0   XLMinor=0   XKMajor=0   XKMinor=0   CmMajor=0   CmMinor=0   DbMajor=0   DbMinor=0   DsMajor=0   DsMinor=0   Rd=0   Ro=0   MaxAggSize=0
   Frame=777636   DesignSect="Program Determined"   FrameType="Program Determined"   RLLF=0   XLMajor=0   XLMinor=0   XKMajor=0   XKMinor=0   CmMajor=0   CmMinor=0   DbMajor=0   DbMinor=0   DsMajor=0   DsMinor=0   Rd=0   Ro=0   MaxAggSize=0
   Frame=777637   DesignSect="Program Determined"   FrameType="Program Determined"   RLLF=0   XLMajor=0   XLMinor=0   XKMajor=0   XKMinor=0   CmMajor=0   CmMinor=0   DbMajor=0   DbMinor=0   DsMajor=0   DsMinor=0   Rd=0   Ro=0   MaxAggSize=0
   Frame=777638   DesignSect="Program Determined"   FrameType="Program Determined"   RLLF=0   XLMajor=0   XLMinor=0   XKMajor=0   XKMinor=0   CmMajor=0   CmMinor=0   DbMajor=0   DbMinor=0   DsMajor=0   DsMinor=0   Rd=0   Ro=0   MaxAggSize=0
   Frame=777639   DesignSect="Program Determined"   FrameType="Program Determined"   RLLF=0   XLMajor=0   XLMinor=0   XKMajor=0   XKMinor=0   CmMajor=0   CmMinor=0   DbMajor=0   DbMinor=0   DsMajor=0   DsMinor=0   Rd=0   Ro=0   MaxAggSize=0
   Frame=777640   DesignSect="Program Determined"   FrameType="Program Determined"   RLLF=0   XLMajor=0   XLMinor=0   XKMajor=0   XKMinor=0   CmMajor=0   CmMinor=0   DbMajor=0   DbMinor=0   DsMajor=0   DsMinor=0   Rd=0   Ro=0   MaxAggSize=0
   Frame=777641   DesignSect="Program Determined"   FrameType="Program Determined"   RLLF=0   XLMajor=0   XLMinor=0   XKMajor=0   XKMinor=0   CmMajor=0   CmMinor=0   DbMajor=0   DbMinor=0   DsMajor=0   DsMinor=0   Rd=0   Ro=0   MaxAggSize=0
   Frame=777642   DesignSect="Program Determined"   FrameType="Program Determined"   RLLF=0   XLMajor=0   XLMinor=0   XKMajor=0   XKMinor=0   CmMajor=0   CmMinor=0   DbMajor=0   DbMinor=0   DsMajor=0   DsMinor=0   Rd=0   Ro=0   MaxAggSize=0
   Frame=777643   DesignSect="Program Determined"   FrameType="Program Determined"   RLLF=0   XLMajor=0   XLMinor=0   XKMajor=0   XKMinor=0   CmMajor=0   CmMinor=0   DbMajor=0   DbMinor=0   DsMajor=0   DsMinor=0   Rd=0   Ro=0   MaxAggSize=0
   Frame=777644   DesignSect="Program Determined"   FrameType="Program Determined"   RLLF=0   XLMajor=0   XLMinor=0   XKMajor=0   XKMinor=0   CmMajor=0   CmMinor=0   DbMajor=0   DbMinor=0   DsMajor=0   DsMinor=0   Rd=0   Ro=0   MaxAggSize=0
# ... 30 like lines cut
 
TABLE:  "PREFERENCES - ALUMINUM DESIGN - AA 2015"
   THDesign=Envelopes   SRatioLimit=1   Provision=ASD   LatFact=1.33333333333333   UseLatFact=No   Bridge=No   OmegaTy=1.65   OmegaTr=1.95   OmegaC=1.65   OmegaBo=1.65   OmegaBr=1.95   OmegaVo=1.65   OmegaVr=1.95
 
TABLE:  "PREFERENCES - COLD FORMED DESIGN - AISI-ASD96"
   THDesign=Envelopes   FrameType="Braced Frame"   SRatioLimit=1   MaxIter=1   OmegaBS=1.67   OmegaBUS=1.67   OmegaBLTB=1.67   OmegaVS=1.67   OmegaVNS=1.5   OmegaT=1.67   OmegaC=1.8
 
TABLE:  "PREFERENCES - CONCRETE DESIGN - CSA-A233-14"
   THDesign=Envelopes   NumCurves=24   NumPoints=11   MinEccen=Yes   BCCDesign=Yes   CTorsion=Yes   PatLLF=0.75   UFLimit=0.95   PhiS=0.85   PhiC=0.65
 
TABLE:  "PREFERENCES - CONCRETE SHELL DESIGN - EUROCODE 2-2004"
   Country="CEN Default"   GammaS=1.15   GammaC=1.5   AlphaCC=1
 
TABLE:  "PREFERENCES - DIMENSIONAL"
   MergeTol=0.001   FineGrid=0.25   Nudge=0.25   SelectTol=3   SnapTol=12   SLineThick=1   PLineThick=4   MaxFont=8   MinFont=3   AutoZoom=10   ShrinkFact=70   TextFileLen=240
 
TABLE:  "PREFERENCES - STEEL DESIGN - AISC 360-10"
   THDesign=Envelopes   FrameType=SMF   PatLLF=0.75   SRatioLimit=0.95   MaxIter=1   SDC=D   SeisCode=No   SeisLoad=No   ImpFactor=1   SystemRho=1   SystemSds=0.5   SystemR=8   SystemCd=5.5   Omega0=3   Provision=LRFD _
        AMethod="Direct Analysis"   SOMethod="General 2nd Order"   SRMethod="Tau-b Fixed"   NLCoeff=0.002   PhiB=0.9   PhiC=0.9   PhiTY=0.9   PhiTF=0.75   PhiV=0.9   PhiVRolledI=1   PhiVT=0.9   PlugWeld=Yes   HSSWelding=ERW   HSSReduceT=No _
        CheckDefl=No   DLRat=120   SDLAndLLRat=120   LLRat=360   TotalRat=240   NetRat=240
 
TABLE:  "PROGRAM CONTROL"
   ProgramName=SAP2000   Version=24.0.0   CurrUnits="Tonf, m, C"   SteelCode="AISC 360-10"   ConcCode="CSA A23.3-14"   AlumCode="AA 2015"   ColdCode=AISI-ASD96   RegenHinge=Yes
 
TABLE:  "PROJECT INFORMATION"
   Item="Company Name"   Data=po
   Item="Client Name"
   Item="Project Name"
   Item="Project Number"
   Item="Model Name"
   Item="Model Description"
   Item="Revision Number"
   Item="Frame Type"
   Item=Engineer
   Item=Checker
   Item=Supervisor
   Item="Issue Code"
   Item="Design Code"
 
TABLE:  "REBAR SIZES"
   RebarID=#2   Area=3.2258E-05   Diameter=0.00635
   RebarID=#3   Area=7.09675996154547E-05   Diameter=0.009525
   RebarID=#4   Area=0.000129032001922727   Diameter=0.0127
   RebarID=#5   Area=0.000199999601538181   Diameter=0.015875
   RebarID=#6   Area=0.000283870398461819   Diameter=0.01905
   RebarID=#7   Area=0.000387096015381813   Diameter=0.022225
   RebarID=#8   Area=0.000509676413843632   Diameter=0.0254
   RebarID=#9   Area=0.00064516   Diameter=0.0286512005329132
   RebarID=#10   Area=0.00081935318769455   Diameter=0.0322579995155334
   RebarID=#11   Area=0.00100644956308365   Diameter=0.0358139991521835
   RebarID=#14   Area=0.00145161   Diameter=0.0430021989583969
   RebarID=#18   Area=0.00258064   Diameter=0.0573277992248535
   RebarID=10M   Area=0.000100000004162606   Diameter=0.0113000003604438
   RebarID=15M   Area=0.000200000008325212   Diameter=0.0160000002402959
   RebarID=20M   Area=0.000300000012487818   Diameter=0.0195000002928606
   RebarID=25M   Area=0.000500000020813031   Diameter=0.0252000011414055
   RebarID=30M   Area=0.000700000029138243   Diameter=0.0299000000675832
   RebarID=35M   Area=0.00100000004162606   Diameter=0.0357000012990997
   RebarID=45M   Area=0.00150000006243909   Diameter=0.0437000014192476
   RebarID=55M   Area=0.00250000010406515   Diameter=0.056400002372922
   RebarID=6d   Area=2.83000004150781E-05   Diameter=0.00600000009011096
   RebarID=8d   Area=5.03000013308514E-05   Diameter=0.00800000012014795
   RebarID=10d   Area=7.85000032676458E-05   Diameter=0.0100000001501849
   RebarID=12d   Area=0.000113000004703745   Diameter=0.0120000001802219
   RebarID=14d   Area=0.000154000006410413   Diameter=0.0140000002102589
   RebarID=16d   Area=0.000201000008366838   Diameter=0.0160000002402959
   RebarID=20d   Area=0.000314000013070583   Diameter=0.0200000003003699
   RebarID=25d   Area=0.000491000020438396   Diameter=0.0250000003754623
   RebarID=26d   Area=0.000531000022103439   Diameter=0.0260000003904808
   RebarID=28d   Area=0.000616000025641654   Diameter=0.0280000004205178
   RebarID=N12   Area=0.000113000004703745   Diameter=0.0120000001802219
   RebarID=N16   Area=0.000201000008366838   Diameter=0.0160000002402959
   RebarID=N20   Area=0.000314000013070583   Diameter=0.0200000003003699
   RebarID=N24   Area=0.00045200001881498   Diameter=0.0240000003604438
   RebarID=N28   Area=0.000616000025641654   Diameter=0.0280000004205178
   RebarID=N32   Area=0.000804000033467353   Diameter=0.0320000004805918
   RebarID=N36   Area=0.00102000004245858   Diameter=0.0360000005406658
 
TABLE:  "SOLID PROPERTY DEFINITIONS"
   SolidProp=Solid1   Material=BTCT   MatAngleA=0   MatAngleB=0   MatAngleC=0   InComp=Yes   Color=Gray8Dark
 
END TABLE DATA
