File D:\ResearchLab\02_Projects\02_Projects\Tap chi XD_SFOA\code\SOO_MPJ\MPJ_Sap\SOO_Displacement_W10\MPJ_10.$2k was saved on m/d/yy at h:mm:ss
 
TABLE:  "ACTIVE DEGREES OF FREEDOM"
   UX=Yes   UY=Yes   UZ=Yes   RX=Yes   RY=Yes   RZ=Yes
 
TABLE:  "ANALYSIS OPTIONS"
   Solver=Advanced   SolverProc=Auto   Force32Bit=No   StiffCase=None   GeomMod=None   HingeOpt="In Elements"   NumAThreads=0   MaxFileSize=0   NumDThreads=0   NumRThreads=0   UseMMFiles="Program Determined"   AllowDiff=No
 
TABLE:  "AREA AUTO MESH ASSIGNMENTS"
   Area=213885   MeshType="Number of Elements"   MeshGroup=ALL   Number1=3   Number2=3   LocalEdge=No   LocalFace=No   SuppEdge=No   SuppFace=No   SubMesh=No
   Area=213886   MeshType="Number of Elements"   MeshGroup=ALL   Number1=3   Number2=3   LocalEdge=No   LocalFace=No   SuppEdge=No   SuppFace=No   SubMesh=No
   Area=213887   MeshType="Number of Elements"   MeshGroup=ALL   Number1=3   Number2=3   LocalEdge=No   LocalFace=No   SuppEdge=No   SuppFace=No   SubMesh=No
   Area=213888   MeshType="Number of Elements"   MeshGroup=ALL   Number1=3   Number2=3   LocalEdge=No   LocalFace=No   SuppEdge=No   SuppFace=No   SubMesh=No
   Area=213889   MeshType="Number of Elements"   MeshGroup=ALL   Number1=3   Number2=3   LocalEdge=No   LocalFace=No   SuppEdge=No   SuppFace=No   SubMesh=No
   Area=213890   MeshType="Number of Elements"   MeshGroup=ALL   Number1=3   Number2=3   LocalEdge=No   LocalFace=No   SuppEdge=No   SuppFace=No   SubMesh=No
   Area=213891   MeshType="Number of Elements"   MeshGroup=ALL   Number1=3   Number2=3   LocalEdge=No   LocalFace=No   SuppEdge=No   SuppFace=No   SubMesh=No
   Area=213892   MeshType="Number of Elements"   MeshGroup=ALL   Number1=3   Number2=3   LocalEdge=No   LocalFace=No   SuppEdge=No   SuppFace=No   SubMesh=No
   Area=213893   MeshType="Number of Elements"   MeshGroup=ALL   Number1=3   Number2=3   LocalEdge=No   LocalFace=No   SuppEdge=No   SuppFace=No   SubMesh=No
   Area=213894   MeshType="Number of Elements"   MeshGroup=ALL   Number1=3   Number2=3   LocalEdge=No   LocalFace=No   SuppEdge=No   SuppFace=No   SubMesh=No
   Area=213895   MeshType="Number of Elements"   MeshGroup=ALL   Number1=3   Number2=3   LocalEdge=No   LocalFace=No   SuppEdge=No   SuppFace=No   SubMesh=No
   Area=213896   MeshType="Number of Elements"   MeshGroup=ALL   Number1=3   Number2=3   LocalEdge=No   LocalFace=No   SuppEdge=No   SuppFace=No   SubMesh=No
   Area=213897   MeshType="Number of Elements"   MeshGroup=ALL   Number1=3   Number2=3   LocalEdge=No   LocalFace=No   SuppEdge=No   SuppFace=No   SubMesh=No
   Area=213898   MeshType="Number of Elements"   MeshGroup=ALL   Number1=3   Number2=3   LocalEdge=No   LocalFace=No   SuppEdge=No   SuppFace=No   SubMesh=No
   Area=213899   MeshType="Number of Elements"   MeshGroup=ALL   Number1=3   Number2=3   LocalEdge=No   LocalFace=No   SuppEdge=No   SuppFace=No   SubMesh=No
   Area=213900   MeshType="Number of Elements"   MeshGroup=ALL   Number1=3   Number2=3   LocalEdge=No   LocalFace=No   SuppEdge=No   SuppFace=No   SubMesh=No
   Area=213901   MeshType="Number of Elements"   MeshGroup=ALL   Number1=3   Number2=3   LocalEdge=No   LocalFace=No   SuppEdge=No   SuppFace=No   SubMesh=No
   Area=213902   MeshType="Number of Elements"   MeshGroup=ALL   Number1=3   Number2=3   LocalEdge=No   LocalFace=No   SuppEdge=No   SuppFace=No   SubMesh=No
   Area=213903   MeshType="Number of Elements"   MeshGroup=ALL   Number1=3   Number2=3   LocalEdge=No   LocalFace=No   SuppEdge=No   SuppFace=No   SubMesh=No
   Area=213904   MeshType="Number of Elements"   MeshGroup=ALL   Number1=3   Number2=3   LocalEdge=No   LocalFace=No   SuppEdge=No   SuppFace=No   SubMesh=No
# ... 20 like lines cut
 
TABLE:  "AREA LOADS - UNIFORM"
   Area=213885   LoadPat=LL   CoordSys=GLOBAL   Dir=Gravity   UnifLoad=1.00034158457019
   Area=213886   LoadPat=LL   CoordSys=GLOBAL   Dir=Gravity   UnifLoad=1.00034158457019
   Area=213887   LoadPat=LL   CoordSys=GLOBAL   Dir=Gravity   UnifLoad=1.00034158457019
   Area=213888   LoadPat=LL   CoordSys=GLOBAL   Dir=Gravity   UnifLoad=1.00034158457019
   Area=213889   LoadPat=LL   CoordSys=GLOBAL   Dir=Gravity   UnifLoad=1.00034158457019
   Area=213890   LoadPat=LL   CoordSys=GLOBAL   Dir=Gravity   UnifLoad=1.00034158457019
   Area=213891   LoadPat=LL   CoordSys=GLOBAL   Dir=Gravity   UnifLoad=1.00034158457019
   Area=213892   LoadPat=LL   CoordSys=GLOBAL   Dir=Gravity   UnifLoad=1.00034158457019
   Area=213893   LoadPat=LL   CoordSys=GLOBAL   Dir=Gravity   UnifLoad=1.00034158457019
   Area=213894   LoadPat=LL   CoordSys=GLOBAL   Dir=Gravity   UnifLoad=1.00034158457019
   Area=213895   LoadPat=LL   CoordSys=GLOBAL   Dir=Gravity   UnifLoad=1.00034158457019
   Area=213896   LoadPat=LL   CoordSys=GLOBAL   Dir=Gravity   UnifLoad=1.00034158457019
   Area=213897   LoadPat=LL   CoordSys=GLOBAL   Dir=Gravity   UnifLoad=1.00034158457019
   Area=213898   LoadPat=LL   CoordSys=GLOBAL   Dir=Gravity   UnifLoad=1.00034158457019
   Area=213899   LoadPat=LL   CoordSys=GLOBAL   Dir=Gravity   UnifLoad=1.00034158457019
   Area=213900   LoadPat=LL   CoordSys=GLOBAL   Dir=Gravity   UnifLoad=1.00034158457019
   Area=213901   LoadPat=LL   CoordSys=GLOBAL   Dir=Gravity   UnifLoad=1.00034158457019
   Area=213902   LoadPat=LL   CoordSys=GLOBAL   Dir=Gravity   UnifLoad=1.00034158457019
   Area=213903   LoadPat=LL   CoordSys=GLOBAL   Dir=Gravity   UnifLoad=1.00034158457019
   Area=213904   LoadPat=LL   CoordSys=GLOBAL   Dir=Gravity   UnifLoad=1.00034158457019
# ... 20 like lines cut
 
TABLE:  "AREA SECTION ASSIGNMENTS"
   Area=213885   Section=Deck   MatProp=Default
   Area=213886   Section=Deck   MatProp=Default
   Area=213887   Section=Deck   MatProp=Default
   Area=213888   Section=Deck   MatProp=Default
   Area=213889   Section=Deck   MatProp=Default
   Area=213890   Section=Deck   MatProp=Default
   Area=213891   Section=Deck   MatProp=Default
   Area=213892   Section=Deck   MatProp=Default
   Area=213893   Section=Deck   MatProp=Default
   Area=213894   Section=Deck   MatProp=Default
   Area=213895   Section=Deck   MatProp=Default
   Area=213896   Section=Deck   MatProp=Default
   Area=213897   Section=Deck   MatProp=Default
   Area=213898   Section=Deck   MatProp=Default
   Area=213899   Section=Deck   MatProp=Default
   Area=213900   Section=Deck   MatProp=Default
   Area=213901   Section=Deck   MatProp=Default
   Area=213902   Section=Deck   MatProp=Default
   Area=213903   Section=Deck   MatProp=Default
   Area=213904   Section=Deck   MatProp=Default
# ... 20 like lines cut
 
TABLE:  "AREA SECTION PROPERTIES"
   Section=Deck   Material=BTCT   MatAngle=0   AreaType=Shell   Type=Shell-Thin   DrillDOF=Yes   Thickness=0.3   BendThick=0.3   Color=Green   F11Mod=1   F22Mod=1   F12Mod=1   M11Mod=1   M22Mod=1   M12Mod=1   V13Mod=1   V23Mod=1   MMod=1 _
        WMod=1   Notes="Added 24-Feb-23 16:56:47"
 
TABLE:  "AREA SECTION PROPERTY DESIGN PARAMETERS"
   Section=Deck   RebarMat=None   RebarOpt=Default
 
TABLE:  "AREA SECTION PROPERTY - TIME DEPENDENT"
   Section=Deck   TypeSize=User   AutoSFSize=1   UserValSize=0.1
 
TABLE:  "AUTO COMBINATION OPTION DATA 01 - GENERAL"
   DesignType=Concrete   AutoGen=Yes
 
TABLE:  "AUTO COMBINATION OPTION DATA 02 - USER DATA"
   DesignType=Concrete   LSType=Strength   LCName=DEAD
   DesignType=Concrete   LSType=Strength   LCName=LL
 
TABLE:  "AUTO WAVE 3 - WAVE CHARACTERISTICS - GENERAL"
   WaveChar=Default   WaveType="From Theory"   KinFactor=1   SWaterDepth=45   WaveHeight=18   WavePeriod=12   WaveTheory=Linear
 
TABLE:  "CASE - MODAL 1 - GENERAL"
   Case=MODAL   ModeType=Eigen   MaxNumModes=12   MinNumModes=1   EigenShift=0   EigenCutoff=0   EigenTol=1E-09   AutoShift=Yes
 
TABLE:  "CASE - STATIC 1 - LOAD ASSIGNMENTS"
   Case=DEAD   LoadType="Load pattern"   LoadName=DEAD   LoadSF=1
   Case=LL   LoadType="Load pattern"   LoadName=LL   LoadSF=1
 
TABLE:  "COMBINATION DEFINITIONS"
   ComboName=COMB1   ComboType="Linear Add"   AutoDesign=No   CaseName=DEAD   ScaleFactor=1   SteelDesign=None   ConcDesign=Strength   AlumDesign=None   ColdDesign=None
   ComboName=COMB2   ComboType="Linear Add"   AutoDesign=No   CaseName=DEAD   ScaleFactor=1   SteelDesign=None   ConcDesign=Strength   AlumDesign=None   ColdDesign=None
   ComboName=COMB2   CaseName=LL   ScaleFactor=1
   ComboName=BAO   ComboType=Envelope   AutoDesign=No   CaseName=COMB1   ScaleFactor=1   SteelDesign=None   ConcDesign=Strength   AlumDesign=None   ColdDesign=None
   ComboName=BAO   CaseName=COMB2   ScaleFactor=1
   ComboName=DCON1   ComboType="Linear Add"   AutoDesign=Yes   CaseName=DEAD   ScaleFactor=1.4   SteelDesign=None   ConcDesign=Strength   AlumDesign=None   ColdDesign=None   GUID=bb4fff9a-98b5-44d1-9fde-34d92700a8e9   Notes="Dead Only; Strength"
   ComboName=DCON2   ComboType="Linear Add"   AutoDesign=Yes   CaseName=DEAD   ScaleFactor=1.25   SteelDesign=None   ConcDesign=Strength   AlumDesign=None   ColdDesign=None   GUID=505bcda7-6fac-4dd0-b03e-c591d1ffc6ce   Notes="Dead + Live; Strength"
   ComboName=DCON2   CaseName=LL   ScaleFactor=1.5
 
TABLE:  "CONNECTIVITY - AREA"
   Area=213885   Joint1=624979   Joint2=624908   Joint3=624867   Joint4=624866   GUID=3b8f1446-9d98-4223-a642-322fb3e6aa48
   Area=213886   Joint1=624866   Joint2=624867   Joint3=624869   Joint4=624868   GUID=64c6da3c-0c1c-47a4-95db-09e1c7ed68e3
   Area=213887   Joint1=624868   Joint2=624869   Joint3=624871   Joint4=624870   GUID=07a77e1c-bbb9-41a2-af73-460b819ad42f
   Area=213888   Joint1=624870   Joint2=624871   Joint3=624873   Joint4=624872   GUID=782702a9-28cf-47bf-947c-19113723f8d4
   Area=213889   Joint1=624872   Joint2=624873   Joint3=624875   Joint4=624874   GUID=70272ab8-1810-48bd-944d-9e1ebed00478
   Area=213890   Joint1=624874   Joint2=624875   Joint3=624877   Joint4=624876   GUID=c6868540-6008-4ff0-b5ef-0b0b7a7e0ec1
   Area=213891   Joint1=624876   Joint2=624877   Joint3=624879   Joint4=624878   GUID=e52c9b6e-dc8c-4dde-959e-95c58b91073e
   Area=213892   Joint1=624878   Joint2=624879   Joint3=624912   Joint4=624980   GUID=79b89ec6-b43b-407f-a0bb-594b13a38a58
   Area=213893   Joint1=624908   Joint2=624909   Joint3=624880   Joint4=624867   GUID=b7a445d1-3d63-4563-9b27-6abd5fd323b1
   Area=213894   Joint1=624867   Joint2=624880   Joint3=624881   Joint4=624869   GUID=be5a1e8e-4381-41f3-9595-d39f44f1b471
   Area=213895   Joint1=624869   Joint2=624881   Joint3=624882   Joint4=624871   GUID=d98e7303-14f7-4259-92c7-f1372fdf7095
   Area=213896   Joint1=624871   Joint2=624882   Joint3=624883   Joint4=624873   GUID=86df7d58-20fd-430f-8d39-7a81c478d510
   Area=213897   Joint1=624873   Joint2=624883   Joint3=624884   Joint4=624875   GUID=20a89896-1b6b-490e-99f4-6a5610b09712
   Area=213898   Joint1=624875   Joint2=624884   Joint3=624885   Joint4=624877   GUID=370d7a94-a242-4644-b7a5-adaae4d801bb
   Area=213899   Joint1=624877   Joint2=624885   Joint3=624886   Joint4=624879   GUID=9fb6cb8c-4e17-48ce-bc32-9efb6dbd909d
   Area=213900   Joint1=624879   Joint2=624886   Joint3=624913   Joint4=624912   GUID=50cd1c82-2896-4a0f-963f-fe7f12ee5afb
   Area=213901   Joint1=624909   Joint2=624910   Joint3=624887   Joint4=624880   GUID=fb35500c-db37-4028-9fd7-1e5a3bab7b4d
   Area=213902   Joint1=624880   Joint2=624887   Joint3=624888   Joint4=624881   GUID=99808665-c259-4a06-8227-feaa6a5ccab0
   Area=213903   Joint1=624881   Joint2=624888   Joint3=624889   Joint4=624882   GUID=d1bba4e2-2de3-4a56-8e8d-02b7ddb00dd1
   Area=213904   Joint1=624882   Joint2=624889   Joint3=624890   Joint4=624883   GUID=e056d067-bce9-4c65-ae95-ff1165904eca
   Area=213905   Joint1=624883   Joint2=624890   Joint3=624891   Joint4=624884   GUID=d73401d8-1b3b-4075-b63c-ee0d48fac5f9
   Area=213906   Joint1=624884   Joint2=624891   Joint3=624892   Joint4=624885   GUID=05980bd0-f078-4d0b-b4cd-71c66783b218
   Area=213907   Joint1=624885   Joint2=624892   Joint3=624893   Joint4=624886   GUID=1f7a1187-6b50-4dd9-8a46-673de28d53d2
   Area=213908   Joint1=624886   Joint2=624893   Joint3=624914   Joint4=624913   GUID=b61a5d89-c28f-4899-9413-62f42c697c74
   Area=213909   Joint1=624910   Joint2=624911   Joint3=624894   Joint4=624887   GUID=9625240f-d5ad-4936-b040-6612274b69aa
   Area=213910   Joint1=624887   Joint2=624894   Joint3=624895   Joint4=624888   GUID=dbfd7bb9-f587-4776-922d-2977fbcfad29
   Area=213911   Joint1=624888   Joint2=624895   Joint3=624896   Joint4=624889   GUID=1ae3dc33-9696-4c18-8296-14cd4f98f9b4
   Area=213912   Joint1=624889   Joint2=624896   Joint3=624897   Joint4=624890   GUID=d723aa98-230c-4ae7-90f9-8b6a396187a2
   Area=213913   Joint1=624890   Joint2=624897   Joint3=624898   Joint4=624891   GUID=63dceeeb-1598-44f0-9733-0d22681f38ef
   Area=213914   Joint1=624891   Joint2=624898   Joint3=624899   Joint4=624892   GUID=dc3471dd-4309-4501-a6d2-c99f5e789ad8
   Area=213915   Joint1=624892   Joint2=624899   Joint3=624900   Joint4=624893   GUID=e9b1da12-5ff4-49e5-9f03-14cb777dca39
   Area=213916   Joint1=624893   Joint2=624900   Joint3=624915   Joint4=624914   GUID=c552713d-709a-4403-8a0e-e64a7aee1700
   Area=213917   Joint1=624911   Joint2=624981   Joint3=624901   Joint4=624894   GUID=e86e85be-17c2-4f45-9b9a-66b2d7c4206c
   Area=213918   Joint1=624894   Joint2=624901   Joint3=624902   Joint4=624895   GUID=4ec5c61a-a496-4a1b-a44a-d098bccc2f75
   Area=213919   Joint1=624895   Joint2=624902   Joint3=624903   Joint4=624896   GUID=e036a056-67b9-4698-9eaa-73b80bd3b610
   Area=213920   Joint1=624896   Joint2=624903   Joint3=624904   Joint4=624897   GUID=7b0820b3-9d34-415a-b15d-254982401f01
   Area=213921   Joint1=624897   Joint2=624904   Joint3=624905   Joint4=624898   GUID=2873b2ab-dfd1-4772-9aa6-0a3a1c076f2b
   Area=213922   Joint1=624898   Joint2=624905   Joint3=624906   Joint4=624899   GUID=52abbaa6-b095-44b7-8746-8e3bf3b27b54
   Area=213923   Joint1=624899   Joint2=624906   Joint3=624907   Joint4=624900   GUID=ee9bda7c-e4af-4380-84cb-63d40719c529
   Area=213924   Joint1=624900   Joint2=624907   Joint3=624982   Joint4=624915   GUID=527b7760-318e-48fc-8b70-62313bbae38c
 
TABLE:  "CONNECTIVITY - FRAME"
   Frame=724799   JointI=624866   JointJ=624867   IsCurved=No   GUID=65d5c492-56a8-4c90-966b-19fbb57415e7
   Frame=724800   JointI=624868   JointJ=624869   IsCurved=No   GUID=c8055086-8c9b-4b55-aec0-0650ab4b31f3
   Frame=724801   JointI=624870   JointJ=624871   IsCurved=No   GUID=3bd21c25-e525-47ef-8123-e386570ea84f
   Frame=724802   JointI=624872   JointJ=624873   IsCurved=No   GUID=59862bd5-418c-4444-bff7-9608cbfe5df8
   Frame=724803   JointI=624874   JointJ=624875   IsCurved=No   GUID=23fa569b-44ec-4245-a810-8b68e91a300e
   Frame=724804   JointI=624876   JointJ=624877   IsCurved=No   GUID=a81eb859-5b65-4eac-9f7a-14d49a3732ac
   Frame=724805   JointI=624878   JointJ=624879   IsCurved=No   GUID=5a5901fe-e2a7-47be-91e5-cbccd355b500
   Frame=724806   JointI=624867   JointJ=624880   IsCurved=No   GUID=19e03646-c323-4e1d-8ec0-aa111b11c361
   Frame=724807   JointI=624869   JointJ=624881   IsCurved=No   GUID=bc36ddec-03a3-4bad-a064-627b0ef5c78e
   Frame=724808   JointI=624871   JointJ=624882   IsCurved=No   GUID=7359cc8d-068c-4139-adc6-adfc3302a43a
   Frame=724809   JointI=624873   JointJ=624883   IsCurved=No   GUID=8fd1b5d8-6d96-4e08-b8a9-27cc770c8a6f
   Frame=724810   JointI=624875   JointJ=624884   IsCurved=No   GUID=2557cdf1-33b5-46b6-85ee-2dc86f444fc2
   Frame=724811   JointI=624877   JointJ=624885   IsCurved=No   GUID=4fa8628e-1ef6-4566-b488-08ba8791190b
   Frame=724812   JointI=624879   JointJ=624886   IsCurved=No   GUID=58e20a5e-f355-49e9-88a5-6f67ffd42dc1
   Frame=724813   JointI=624880   JointJ=624887   IsCurved=No   GUID=45f945f7-0b67-4b3e-9fa0-371fdc2d06f0
   Frame=724814   JointI=624881   JointJ=624888   IsCurved=No   GUID=a5b945b2-57f2-4bf2-b5c6-3de23384c586
   Frame=724815   JointI=624882   JointJ=624889   IsCurved=No   GUID=2a8c78ed-2707-4dab-9a5d-8128f9d7f005
   Frame=724816   JointI=624883   JointJ=624890   IsCurved=No   GUID=732bbb43-ff28-434a-8397-dd94e82e0c7d
   Frame=724817   JointI=624884   JointJ=624891   IsCurved=No   GUID=b628717a-bd21-46a2-bc5b-52de430536ff
   Frame=724818   JointI=624885   JointJ=624892   IsCurved=No   GUID=c70b5e2a-09a5-41b9-8190-8fd1cca20115
   Frame=724819   JointI=624886   JointJ=624893   IsCurved=No   GUID=b7dada80-1076-4805-900d-41d09b315359
   Frame=724820   JointI=624887   JointJ=624894   IsCurved=No   GUID=c5a1157e-5da4-48af-a56b-53a63b2f858b
   Frame=724821   JointI=624888   JointJ=624895   IsCurved=No   GUID=4a09473b-9489-4453-8c5e-6d1d851d00fc
   Frame=724822   JointI=624889   JointJ=624896   IsCurved=No   GUID=8df64969-1c6d-4611-8b26-5b6db6288549
   Frame=724823   JointI=624890   JointJ=624897   IsCurved=No   GUID=fca1f08e-30cd-4d44-9666-8670aeb83646
   Frame=724824   JointI=624891   JointJ=624898   IsCurved=No   GUID=05a877d5-ddf6-46a2-a7c6-141cf5f2750f
   Frame=724825   JointI=624892   JointJ=624899   IsCurved=No   GUID=6d50fafe-2a07-4066-98fe-3b3fd22bd7ba
   Frame=724826   JointI=624893   JointJ=624900   IsCurved=No   GUID=06e99e94-19bf-449e-bc96-d0a74c635c3c
   Frame=724827   JointI=624894   JointJ=624901   IsCurved=No   GUID=24d012cf-dc96-4111-bce7-6abfec1ded38
   Frame=724828   JointI=624895   JointJ=624902   IsCurved=No   GUID=5617bd7b-fbe0-43f8-9a36-d603d8746e95
   Frame=724829   JointI=624896   JointJ=624903   IsCurved=No   GUID=90e2ccc9-a765-4b7e-93ff-64383399b44d
   Frame=724830   JointI=624897   JointJ=624904   IsCurved=No   GUID=8df537a6-cf43-4b03-ab65-0a173e868f57
   Frame=724831   JointI=624898   JointJ=624905   IsCurved=No   GUID=5e0c7358-acdd-41c9-a7e4-35d00c7d1090
   Frame=724832   JointI=624899   JointJ=624906   IsCurved=No   GUID=31d2d5b7-474a-434c-aafa-d2a84f7e37c4
   Frame=724833   JointI=624900   JointJ=624907   IsCurved=No   GUID=d559b0c1-33af-47c7-b460-0f1582d7ef9c
   Frame=724834   JointI=624908   JointJ=624867   IsCurved=No   GUID=8913c650-b117-42eb-bac7-9e4bc819584b
   Frame=724835   JointI=624909   JointJ=624880   IsCurved=No   GUID=e733f005-c02f-4f63-8993-716055244517
   Frame=724836   JointI=624910   JointJ=624887   IsCurved=No   GUID=85bb68cc-5922-4f21-84e2-f18116a5b1ae
   Frame=724837   JointI=624911   JointJ=624894   IsCurved=No   GUID=192b71e5-bff7-4257-a347-56a06d4226de
   Frame=724838   JointI=624867   JointJ=624869   IsCurved=No   GUID=a59aad6e-157f-4e47-8a07-c293ffee27cb
   Frame=724839   JointI=624880   JointJ=624881   IsCurved=No   GUID=d165d855-8aad-4466-b788-cda1bc43e2da
   Frame=724840   JointI=624887   JointJ=624888   IsCurved=No   GUID=5759ec28-d733-40b2-bb4e-329636dbbf85
   Frame=724841   JointI=624894   JointJ=624895   IsCurved=No   GUID=b717aca7-3fb6-4c74-aa1a-48f754d54b58
   Frame=724842   JointI=624869   JointJ=624871   IsCurved=No   GUID=6c360925-42bf-4f11-8853-5e80fe465ff7
   Frame=724843   JointI=624881   JointJ=624882   IsCurved=No   GUID=412b1e9b-46e1-4783-bbd0-1f8612163050
   Frame=724844   JointI=624888   JointJ=624889   IsCurved=No   GUID=49f594b9-804e-4653-836d-0e275365cdc4
   Frame=724845   JointI=624895   JointJ=624896   IsCurved=No   GUID=d5cf8ee5-91ba-424f-bceb-c8e4962bc79c
   Frame=724846   JointI=624871   JointJ=624873   IsCurved=No   GUID=679b36d9-ff76-4031-9448-75f16ea48e5b
   Frame=724847   JointI=624882   JointJ=624883   IsCurved=No   GUID=bf707728-750f-4f1f-8fe6-1d78de7ff213
   Frame=724848   JointI=624889   JointJ=624890   IsCurved=No   GUID=db230415-fcb2-41dc-a36c-ed512664033e
   Frame=724849   JointI=624896   JointJ=624897   IsCurved=No   GUID=afee8b4f-cb78-45b4-bb1e-6a52e23f990e
   Frame=724850   JointI=624873   JointJ=624875   IsCurved=No   GUID=4edfaa23-15c0-42d5-bcd5-781c579e1104
   Frame=724851   JointI=624883   JointJ=624884   IsCurved=No   GUID=fd7a3002-ad0d-40a5-83c8-d19bfea720e4
   Frame=724852   JointI=624890   JointJ=624891   IsCurved=No   GUID=3dcd0319-1cd4-49c3-844c-e70bced2b9ca
   Frame=724853   JointI=624897   JointJ=624898   IsCurved=No   GUID=070eb7d4-0ce4-47eb-b2c4-134e53dd8503
   Frame=724854   JointI=624875   JointJ=624877   IsCurved=No   GUID=8138ee27-6aad-4662-8dd0-b55a0b53379a
   Frame=724855   JointI=624884   JointJ=624885   IsCurved=No   GUID=00033043-af4f-40af-b25c-862e828ead0b
   Frame=724856   JointI=624891   JointJ=624892   IsCurved=No   GUID=3ff64369-30c5-4874-b638-2908adbd6ff6
   Frame=724857   JointI=624898   JointJ=624899   IsCurved=No   GUID=a4cca7ef-b200-4d0d-928e-b9107b4ef51b
   Frame=724858   JointI=624877   JointJ=624879   IsCurved=No   GUID=ac8139c5-ee4a-496f-af74-5f6d6e6157b0
   Frame=724859   JointI=624885   JointJ=624886   IsCurved=No   GUID=458a4f00-7221-4091-b83a-4317e03760f7
   Frame=724860   JointI=624892   JointJ=624893   IsCurved=No   GUID=41ce702c-9fe4-4f19-9e01-553c597a623d
   Frame=724861   JointI=624899   JointJ=624900   IsCurved=No   GUID=1469f68e-64b8-42c8-bd9d-2e07614e9108
   Frame=724862   JointI=624879   JointJ=624912   IsCurved=No   GUID=d1ef17f1-26fa-4ee7-ba55-307099b2458a
   Frame=724863   JointI=624886   JointJ=624913   IsCurved=No   GUID=eaeb85b7-2304-40f3-a622-f6c43b8eaa48
   Frame=724864   JointI=624893   JointJ=624914   IsCurved=No   GUID=9a60713f-20ad-420b-9d98-c909dadc1dce
   Frame=724865   JointI=624900   JointJ=624915   IsCurved=No   GUID=a95797d0-cd14-415c-ab50-d1ec240b1d6f
   Frame=724866   JointI=624867   JointJ=624916   IsCurved=No   GUID=241d1566-aadc-4ab1-b55a-88db2f01e1af
   Frame=724867   JointI=624916   JointJ=624917   IsCurved=No   GUID=e1368c6e-ac69-4d80-9aa0-0639e4f7c7c6
   Frame=724868   JointI=624917   JointJ=624918   IsCurved=No   GUID=fe34f12f-c7a7-4b4c-abb2-7efdf3507842
   Frame=724869   JointI=624869   JointJ=624919   IsCurved=No   GUID=5f21310a-f109-4174-9d0f-ab885c5650bc
   Frame=724870   JointI=624919   JointJ=624920   IsCurved=No   GUID=701c9029-8486-41a2-9c2c-de183cb2cd48
   Frame=724871   JointI=624920   JointJ=624921   IsCurved=No   GUID=9efdf542-dd0e-4248-a0aa-c2e73b1bd1f3
   Frame=724872   JointI=624871   JointJ=624922   IsCurved=No   GUID=7d6d6c72-ee85-4ef9-98eb-0184d37aa849
   Frame=724873   JointI=624922   JointJ=624923   IsCurved=No   GUID=96ba1d6b-3ef8-4e1d-ad5e-ae2b2dddc53a
   Frame=724874   JointI=624923   JointJ=624924   IsCurved=No   GUID=23703d55-8321-41bf-a998-69e6e3306bff
   Frame=724875   JointI=624873   JointJ=624925   IsCurved=No   GUID=5a05a557-18c9-4381-801b-d2eff257daf6
   Frame=724876   JointI=624925   JointJ=624926   IsCurved=No   GUID=3f037dc1-be28-4591-95d7-abd3a0cf5df5
   Frame=724877   JointI=624926   JointJ=624927   IsCurved=No   GUID=19edc48c-3f24-46e6-9938-28951820bc86
   Frame=724878   JointI=624875   JointJ=624928   IsCurved=No   GUID=f9186af8-3549-4b4e-a0ca-7bb17a7c8f24
   Frame=724879   JointI=624928   JointJ=624929   IsCurved=No   GUID=226c1d01-9f6c-456d-8522-dfb5994f6e8a
   Frame=724880   JointI=624929   JointJ=624930   IsCurved=No   GUID=8d0ba1b2-023e-4d94-9fb2-12e44bc6cc73
   Frame=724881   JointI=624877   JointJ=624931   IsCurved=No   GUID=8911d5b4-fdb9-487d-b9df-34467b59fcc9
   Frame=724882   JointI=624931   JointJ=624932   IsCurved=No   GUID=8c06def5-edfc-4eec-bf44-a5611f466196
   Frame=724883   JointI=624932   JointJ=624933   IsCurved=No   GUID=848da15e-e0c0-41ee-912f-682f58fcce7a
   Frame=724884   JointI=624879   JointJ=624934   IsCurved=No   GUID=fedf8920-ed5a-4355-9f31-cf26b26f8693
   Frame=724885   JointI=624934   JointJ=624935   IsCurved=No   GUID=495331d0-486b-4c91-8080-23a89ec399d4
   Frame=724886   JointI=624935   JointJ=624936   IsCurved=No   GUID=20f80255-5c48-4153-af07-5a47dd2c9898
   Frame=724887   JointI=624880   JointJ=624937   IsCurved=No   GUID=143ac4fd-0a0c-4369-a954-5755784cffc8
   Frame=724888   JointI=624937   JointJ=624938   IsCurved=No   GUID=c7b33dc4-78be-4c50-983f-7eecf14d3a19
   Frame=724889   JointI=624881   JointJ=624939   IsCurved=No   GUID=d391a0f7-2704-4709-92ad-5450828b36f5
   Frame=724890   JointI=624939   JointJ=624940   IsCurved=No   GUID=8666051e-c85d-4e07-b674-d88defd22acd
   Frame=724891   JointI=624882   JointJ=624941   IsCurved=No   GUID=e68320b6-960b-4e89-a5b6-f6ffc2144192
   Frame=724892   JointI=624941   JointJ=624942   IsCurved=No   GUID=52306fd3-e241-4e92-ba16-a69680d800ac
   Frame=724893   JointI=624883   JointJ=624943   IsCurved=No   GUID=ff6be9e9-b1f9-4743-8b27-41cf9d3e4baf
   Frame=724894   JointI=624943   JointJ=624944   IsCurved=No   GUID=231fa88f-3c43-4aba-b1b1-f4f2777022cb
   Frame=724895   JointI=624884   JointJ=624945   IsCurved=No   GUID=8164157a-a325-444c-91b3-dd553fb8dbb9
   Frame=724896   JointI=624945   JointJ=624946   IsCurved=No   GUID=292001ff-f8cd-4679-977e-47a527ba47aa
   Frame=724897   JointI=624885   JointJ=624947   IsCurved=No   GUID=7bd16aea-c046-4abd-a905-1ab6c1d1b6e4
   Frame=724898   JointI=624947   JointJ=624948   IsCurved=No   GUID=475a4608-5ad4-4d56-b698-4066ecf31a26
   Frame=724899   JointI=624886   JointJ=624949   IsCurved=No   GUID=e8849383-71de-4554-90e9-a2241b01c3ef
   Frame=724900   JointI=624949   JointJ=624950   IsCurved=No   GUID=96d60933-1862-47ad-bbbe-0e9832bb4d79
   Frame=724901   JointI=624887   JointJ=624951   IsCurved=No   GUID=72655662-2180-40a3-934b-33159ff5ed06
   Frame=724902   JointI=624951   JointJ=624952   IsCurved=No   GUID=4daf302f-efd7-4bd0-9db9-fce040045a69
   Frame=724903   JointI=624888   JointJ=624953   IsCurved=No   GUID=adeacf45-bebd-4d39-8163-88fd1169867b
   Frame=724904   JointI=624953   JointJ=624954   IsCurved=No   GUID=7323cacc-3152-4c24-88ca-4a05105fed8d
   Frame=724905   JointI=624889   JointJ=624955   IsCurved=No   GUID=c0fe6c5e-bdc8-4c8d-ba4d-57a75c57784c
   Frame=724906   JointI=624955   JointJ=624956   IsCurved=No   GUID=a1ebc736-eae7-4b14-a24e-4576591c96a1
   Frame=724907   JointI=624890   JointJ=624957   IsCurved=No   GUID=9dbfdf78-e2d3-408f-a707-f8a401d2a991
   Frame=724908   JointI=624957   JointJ=624958   IsCurved=No   GUID=236ead5f-c37a-4b2f-b15f-1460410db55d
   Frame=724909   JointI=624891   JointJ=624959   IsCurved=No   GUID=dc503a6b-3876-48b1-bca6-3d1bd9f9319f
   Frame=724910   JointI=624959   JointJ=624960   IsCurved=No   GUID=f1638a59-4472-4694-ae79-0d48c7cec81e
   Frame=724911   JointI=624892   JointJ=624961   IsCurved=No   GUID=b4f8605e-7b1d-4fe6-a906-36ce7a9aac44
   Frame=724912   JointI=624961   JointJ=624962   IsCurved=No   GUID=0a3999e6-a66b-4b3b-94e0-7e9e34eab157
   Frame=724913   JointI=624893   JointJ=624963   IsCurved=No   GUID=a40978cf-fec9-423a-a3a2-691c515e45b4
   Frame=724914   JointI=624963   JointJ=624964   IsCurved=No   GUID=e22a58e5-2a82-4b39-9915-c004c314dda6
   Frame=724915   JointI=624894   JointJ=624965   IsCurved=No   GUID=8cdbaab2-1601-471f-bb56-332ab8e64b15
   Frame=724916   JointI=624965   JointJ=624966   IsCurved=No   GUID=b82e5441-ab4b-4f36-baa3-8a24a0e37b33
   Frame=724917   JointI=624895   JointJ=624967   IsCurved=No   GUID=226f160c-ddf5-4380-8a64-9bacbf49ee1e
   Frame=724918   JointI=624967   JointJ=624968   IsCurved=No   GUID=f9dfa0bb-3371-415a-8ae2-76eecfe5e182
   Frame=724919   JointI=624896   JointJ=624969   IsCurved=No   GUID=bba367c8-45e6-42a4-9495-e14118d3cae1
   Frame=724920   JointI=624969   JointJ=624970   IsCurved=No   GUID=9641a9c4-7a1a-4f44-965b-adb88a651698
   Frame=724921   JointI=624897   JointJ=624971   IsCurved=No   GUID=37fedd9b-85fb-429d-9cd2-4c1487c81ba4
   Frame=724922   JointI=624971   JointJ=624972   IsCurved=No   GUID=50cc6867-864e-4e73-a635-dcf445316ff3
   Frame=724923   JointI=624898   JointJ=624973   IsCurved=No   GUID=46229876-df35-44c5-96fe-58b0ad7ac201
   Frame=724924   JointI=624973   JointJ=624974   IsCurved=No   GUID=c27898a4-bf17-47d8-af02-1e50ea6fd589
   Frame=724925   JointI=624899   JointJ=624975   IsCurved=No   GUID=597ab392-5372-4b7d-985e-51f93a410c71
   Frame=724926   JointI=624975   JointJ=624976   IsCurved=No   GUID=8fc04dc2-0dc4-4594-b995-5035d0f69497
   Frame=724927   JointI=624900   JointJ=624977   IsCurved=No   GUID=8a5bfabc-4ee4-4dae-886e-bd3f5e08412e
   Frame=724928   JointI=624977   JointJ=624978   IsCurved=No   GUID=766f5fc6-bf6e-48ce-9cd0-a2c6d284e825
   Frame=724929   JointI=624916   JointJ=624919   IsCurved=No   GUID=77ea5a22-3853-4bf6-9742-eb91de1cc27b
   Frame=724930   JointI=624919   JointJ=624922   IsCurved=No   GUID=70b7ed39-a79d-449f-92ae-b49c9a0104b3
   Frame=724931   JointI=624922   JointJ=624925   IsCurved=No   GUID=390d9bb0-2e98-4401-803f-4ee3982d940b
   Frame=724932   JointI=624925   JointJ=624928   IsCurved=No   GUID=ca17e233-c931-4b71-a079-0652a351b468
   Frame=724933   JointI=624928   JointJ=624931   IsCurved=No   GUID=b86e00d8-70f3-42df-8a32-57d772b6f4ab
   Frame=724934   JointI=624931   JointJ=624934   IsCurved=No   GUID=a1adc53b-8997-45bf-a530-41f35256b559
 
TABLE:  "COORDINATE SYSTEMS"
   Name=GLOBAL   Type=Cartesian   X=0   Y=0   Z=0   AboutZ=0   AboutY=0   AboutX=0
 
TABLE:  "DATABASE DOCUMENTATION"
 
TABLE:  "DATABASE FORMAT TYPES"
   UnitsCurr=Yes   OverrideE=No
 
TABLE:  "FRAME AUTO MESH ASSIGNMENTS"
   Frame=724799   AutoMesh=Yes   AtJoints=Yes   AtFrames=No   NumSegments=0   MaxLength=0   MaxDegrees=0
   Frame=724800   AutoMesh=Yes   AtJoints=Yes   AtFrames=No   NumSegments=0   MaxLength=0   MaxDegrees=0
   Frame=724801   AutoMesh=Yes   AtJoints=Yes   AtFrames=No   NumSegments=0   MaxLength=0   MaxDegrees=0
   Frame=724802   AutoMesh=Yes   AtJoints=Yes   AtFrames=No   NumSegments=0   MaxLength=0   MaxDegrees=0
   Frame=724803   AutoMesh=Yes   AtJoints=Yes   AtFrames=No   NumSegments=0   MaxLength=0   MaxDegrees=0
   Frame=724804   AutoMesh=Yes   AtJoints=Yes   AtFrames=No   NumSegments=0   MaxLength=0   MaxDegrees=0
   Frame=724805   AutoMesh=Yes   AtJoints=Yes   AtFrames=No   NumSegments=0   MaxLength=0   MaxDegrees=0
   Frame=724806   AutoMesh=Yes   AtJoints=Yes   AtFrames=No   NumSegments=0   MaxLength=0   MaxDegrees=0
   Frame=724807   AutoMesh=Yes   AtJoints=Yes   AtFrames=No   NumSegments=0   MaxLength=0   MaxDegrees=0
   Frame=724808   AutoMesh=Yes   AtJoints=Yes   AtFrames=No   NumSegments=0   MaxLength=0   MaxDegrees=0
   Frame=724809   AutoMesh=Yes   AtJoints=Yes   AtFrames=No   NumSegments=0   MaxLength=0   MaxDegrees=0
   Frame=724810   AutoMesh=Yes   AtJoints=Yes   AtFrames=No   NumSegments=0   MaxLength=0   MaxDegrees=0
   Frame=724811   AutoMesh=Yes   AtJoints=Yes   AtFrames=No   NumSegments=0   MaxLength=0   MaxDegrees=0
   Frame=724812   AutoMesh=Yes   AtJoints=Yes   AtFrames=No   NumSegments=0   MaxLength=0   MaxDegrees=0
   Frame=724813   AutoMesh=Yes   AtJoints=Yes   AtFrames=No   NumSegments=0   MaxLength=0   MaxDegrees=0
   Frame=724814   AutoMesh=Yes   AtJoints=Yes   AtFrames=No   NumSegments=0   MaxLength=0   MaxDegrees=0
   Frame=724815   AutoMesh=Yes   AtJoints=Yes   AtFrames=No   NumSegments=0   MaxLength=0   MaxDegrees=0
   Frame=724816   AutoMesh=Yes   AtJoints=Yes   AtFrames=No   NumSegments=0   MaxLength=0   MaxDegrees=0
   Frame=724817   AutoMesh=Yes   AtJoints=Yes   AtFrames=No   NumSegments=0   MaxLength=0   MaxDegrees=0
   Frame=724818   AutoMesh=Yes   AtJoints=Yes   AtFrames=No   NumSegments=0   MaxLength=0   MaxDegrees=0
# ... 116 like lines cut
 
TABLE:  "FRAME DESIGN PROCEDURES"
   Frame=724799   DesignProc="From Material"
   Frame=724800   DesignProc="From Material"
   Frame=724801   DesignProc="From Material"
   Frame=724802   DesignProc="From Material"
   Frame=724803   DesignProc="From Material"
   Frame=724804   DesignProc="From Material"
   Frame=724805   DesignProc="From Material"
   Frame=724806   DesignProc="From Material"
   Frame=724807   DesignProc="From Material"
   Frame=724808   DesignProc="From Material"
   Frame=724809   DesignProc="From Material"
   Frame=724810   DesignProc="From Material"
   Frame=724811   DesignProc="From Material"
   Frame=724812   DesignProc="From Material"
   Frame=724813   DesignProc="From Material"
   Frame=724814   DesignProc="From Material"
   Frame=724815   DesignProc="From Material"
   Frame=724816   DesignProc="From Material"
   Frame=724817   DesignProc="From Material"
   Frame=724818   DesignProc="From Material"
# ... 48 like lines cut
   Frame=724867   DesignProc="No Design"
   Frame=724868   DesignProc="No Design"
   Frame=724869   DesignProc="From Material"
   Frame=724870   DesignProc="No Design"
   Frame=724871   DesignProc="No Design"
   Frame=724872   DesignProc="From Material"
   Frame=724873   DesignProc="No Design"
   Frame=724874   DesignProc="No Design"
   Frame=724875   DesignProc="From Material"
   Frame=724876   DesignProc="No Design"
   Frame=724877   DesignProc="No Design"
   Frame=724878   DesignProc="From Material"
   Frame=724879   DesignProc="No Design"
   Frame=724880   DesignProc="No Design"
   Frame=724881   DesignProc="From Material"
   Frame=724882   DesignProc="No Design"
   Frame=724883   DesignProc="No Design"
   Frame=724884   DesignProc="From Material"
   Frame=724885   DesignProc="No Design"
   Frame=724886   DesignProc="No Design"
   Frame=724887   DesignProc="No Design"
   Frame=724888   DesignProc="No Design"
   Frame=724889   DesignProc="No Design"
   Frame=724890   DesignProc="No Design"
   Frame=724891   DesignProc="No Design"
   Frame=724892   DesignProc="No Design"
   Frame=724893   DesignProc="No Design"
   Frame=724894   DesignProc="No Design"
   Frame=724895   DesignProc="No Design"
   Frame=724896   DesignProc="No Design"
   Frame=724897   DesignProc="No Design"
   Frame=724898   DesignProc="No Design"
   Frame=724899   DesignProc="No Design"
   Frame=724900   DesignProc="No Design"
   Frame=724901   DesignProc="No Design"
   Frame=724902   DesignProc="No Design"
   Frame=724903   DesignProc="No Design"
   Frame=724904   DesignProc="No Design"
# ... 24 like lines cut
   Frame=724929   DesignProc="From Material"
   Frame=724930   DesignProc="From Material"
   Frame=724931   DesignProc="From Material"
   Frame=724932   DesignProc="From Material"
   Frame=724933   DesignProc="From Material"
   Frame=724934   DesignProc="From Material"
 
TABLE:  "FRAME LOAD TRANSFER OPTIONS"
   Frame=724799   Transfer=Yes
   Frame=724800   Transfer=Yes
   Frame=724801   Transfer=Yes
   Frame=724802   Transfer=Yes
   Frame=724803   Transfer=Yes
   Frame=724804   Transfer=Yes
   Frame=724805   Transfer=Yes
   Frame=724806   Transfer=Yes
   Frame=724807   Transfer=Yes
   Frame=724808   Transfer=Yes
   Frame=724809   Transfer=Yes
   Frame=724810   Transfer=Yes
   Frame=724811   Transfer=Yes
   Frame=724812   Transfer=Yes
   Frame=724813   Transfer=Yes
   Frame=724814   Transfer=Yes
   Frame=724815   Transfer=Yes
   Frame=724816   Transfer=Yes
   Frame=724817   Transfer=Yes
   Frame=724818   Transfer=Yes
# ... 116 like lines cut
 
TABLE:  "FRAME LOCAL AXES ASSIGNMENTS 1 - TYPICAL"
   Frame=724866   Angle=90
   Frame=724869   Angle=90
   Frame=724872   Angle=90
   Frame=724875   Angle=90
   Frame=724878   Angle=90
   Frame=724881   Angle=90
   Frame=724884   Angle=90
 
TABLE:  "FRAME OUTPUT STATION ASSIGNMENTS"
   Frame=724799   StationType=MaxStaSpcg   MaxStaSpcg=0.5   AddAtElmInt=Yes   AddAtPtLoad=Yes
   Frame=724800   StationType=MaxStaSpcg   MaxStaSpcg=0.5   AddAtElmInt=Yes   AddAtPtLoad=Yes
   Frame=724801   StationType=MaxStaSpcg   MaxStaSpcg=0.5   AddAtElmInt=Yes   AddAtPtLoad=Yes
   Frame=724802   StationType=MaxStaSpcg   MaxStaSpcg=0.5   AddAtElmInt=Yes   AddAtPtLoad=Yes
   Frame=724803   StationType=MaxStaSpcg   MaxStaSpcg=0.5   AddAtElmInt=Yes   AddAtPtLoad=Yes
   Frame=724804   StationType=MaxStaSpcg   MaxStaSpcg=0.5   AddAtElmInt=Yes   AddAtPtLoad=Yes
   Frame=724805   StationType=MaxStaSpcg   MaxStaSpcg=0.5   AddAtElmInt=Yes   AddAtPtLoad=Yes
   Frame=724806   StationType=MaxStaSpcg   MaxStaSpcg=0.5   AddAtElmInt=Yes   AddAtPtLoad=Yes
   Frame=724807   StationType=MaxStaSpcg   MaxStaSpcg=0.5   AddAtElmInt=Yes   AddAtPtLoad=Yes
   Frame=724808   StationType=MaxStaSpcg   MaxStaSpcg=0.5   AddAtElmInt=Yes   AddAtPtLoad=Yes
   Frame=724809   StationType=MaxStaSpcg   MaxStaSpcg=0.5   AddAtElmInt=Yes   AddAtPtLoad=Yes
   Frame=724810   StationType=MaxStaSpcg   MaxStaSpcg=0.5   AddAtElmInt=Yes   AddAtPtLoad=Yes
   Frame=724811   StationType=MaxStaSpcg   MaxStaSpcg=0.5   AddAtElmInt=Yes   AddAtPtLoad=Yes
   Frame=724812   StationType=MaxStaSpcg   MaxStaSpcg=0.5   AddAtElmInt=Yes   AddAtPtLoad=Yes
   Frame=724813   StationType=MaxStaSpcg   MaxStaSpcg=0.5   AddAtElmInt=Yes   AddAtPtLoad=Yes
   Frame=724814   StationType=MaxStaSpcg   MaxStaSpcg=0.5   AddAtElmInt=Yes   AddAtPtLoad=Yes
   Frame=724815   StationType=MaxStaSpcg   MaxStaSpcg=0.5   AddAtElmInt=Yes   AddAtPtLoad=Yes
   Frame=724816   StationType=MaxStaSpcg   MaxStaSpcg=0.5   AddAtElmInt=Yes   AddAtPtLoad=Yes
   Frame=724817   StationType=MaxStaSpcg   MaxStaSpcg=0.5   AddAtElmInt=Yes   AddAtPtLoad=Yes
   Frame=724818   StationType=MaxStaSpcg   MaxStaSpcg=0.5   AddAtElmInt=Yes   AddAtPtLoad=Yes
# ... 47 like lines cut
   Frame=724866   StationType=MinNumSta   MinNumSta=3   AddAtElmInt=Yes   AddAtPtLoad=Yes
   Frame=724867   StationType=MinNumSta   MinNumSta=3   AddAtElmInt=Yes   AddAtPtLoad=Yes
   Frame=724868   StationType=MinNumSta   MinNumSta=3   AddAtElmInt=Yes   AddAtPtLoad=Yes
   Frame=724869   StationType=MinNumSta   MinNumSta=3   AddAtElmInt=Yes   AddAtPtLoad=Yes
   Frame=724870   StationType=MinNumSta   MinNumSta=3   AddAtElmInt=Yes   AddAtPtLoad=Yes
   Frame=724871   StationType=MinNumSta   MinNumSta=3   AddAtElmInt=Yes   AddAtPtLoad=Yes
   Frame=724872   StationType=MinNumSta   MinNumSta=3   AddAtElmInt=Yes   AddAtPtLoad=Yes
   Frame=724873   StationType=MinNumSta   MinNumSta=3   AddAtElmInt=Yes   AddAtPtLoad=Yes
   Frame=724874   StationType=MinNumSta   MinNumSta=3   AddAtElmInt=Yes   AddAtPtLoad=Yes
   Frame=724875   StationType=MinNumSta   MinNumSta=3   AddAtElmInt=Yes   AddAtPtLoad=Yes
   Frame=724876   StationType=MinNumSta   MinNumSta=3   AddAtElmInt=Yes   AddAtPtLoad=Yes
   Frame=724877   StationType=MinNumSta   MinNumSta=3   AddAtElmInt=Yes   AddAtPtLoad=Yes
   Frame=724878   StationType=MinNumSta   MinNumSta=3   AddAtElmInt=Yes   AddAtPtLoad=Yes
   Frame=724879   StationType=MinNumSta   MinNumSta=3   AddAtElmInt=Yes   AddAtPtLoad=Yes
   Frame=724880   StationType=MinNumSta   MinNumSta=3   AddAtElmInt=Yes   AddAtPtLoad=Yes
   Frame=724881   StationType=MinNumSta   MinNumSta=3   AddAtElmInt=Yes   AddAtPtLoad=Yes
   Frame=724882   StationType=MinNumSta   MinNumSta=3   AddAtElmInt=Yes   AddAtPtLoad=Yes
   Frame=724883   StationType=MinNumSta   MinNumSta=3   AddAtElmInt=Yes   AddAtPtLoad=Yes
   Frame=724884   StationType=MinNumSta   MinNumSta=3   AddAtElmInt=Yes   AddAtPtLoad=Yes
   Frame=724885   StationType=MinNumSta   MinNumSta=3   AddAtElmInt=Yes   AddAtPtLoad=Yes
# ... 43 like lines cut
   Frame=724929   StationType=MaxStaSpcg   MaxStaSpcg=0.5   AddAtElmInt=Yes   AddAtPtLoad=Yes
   Frame=724930   StationType=MaxStaSpcg   MaxStaSpcg=0.5   AddAtElmInt=Yes   AddAtPtLoad=Yes
   Frame=724931   StationType=MaxStaSpcg   MaxStaSpcg=0.5   AddAtElmInt=Yes   AddAtPtLoad=Yes
   Frame=724932   StationType=MaxStaSpcg   MaxStaSpcg=0.5   AddAtElmInt=Yes   AddAtPtLoad=Yes
   Frame=724933   StationType=MaxStaSpcg   MaxStaSpcg=0.5   AddAtElmInt=Yes   AddAtPtLoad=Yes
   Frame=724934   StationType=MaxStaSpcg   MaxStaSpcg=0.5   AddAtElmInt=Yes   AddAtPtLoad=Yes
 
TABLE:  "FRAME SECTION ASSIGNMENTS"
   Frame=724799   AutoSelect=N.A.   AnalSect=TB   MatProp=Default
   Frame=724800   AutoSelect=N.A.   AnalSect=TB   MatProp=Default
   Frame=724801   AutoSelect=N.A.   AnalSect=TB   MatProp=Default
   Frame=724802   AutoSelect=N.A.   AnalSect=TB   MatProp=Default
   Frame=724803   AutoSelect=N.A.   AnalSect=TB   MatProp=Default
   Frame=724804   AutoSelect=N.A.   AnalSect=TB   MatProp=Default
   Frame=724805   AutoSelect=N.A.   AnalSect=TB   MatProp=Default
   Frame=724806   AutoSelect=N.A.   AnalSect=TB   MatProp=Default
   Frame=724807   AutoSelect=N.A.   AnalSect=TB   MatProp=Default
   Frame=724808   AutoSelect=N.A.   AnalSect=TB   MatProp=Default
   Frame=724809   AutoSelect=N.A.   AnalSect=TB   MatProp=Default
   Frame=724810   AutoSelect=N.A.   AnalSect=TB   MatProp=Default
   Frame=724811   AutoSelect=N.A.   AnalSect=TB   MatProp=Default
   Frame=724812   AutoSelect=N.A.   AnalSect=TB   MatProp=Default
   Frame=724813   AutoSelect=N.A.   AnalSect=TB   MatProp=Default
   Frame=724814   AutoSelect=N.A.   AnalSect=TB   MatProp=Default
   Frame=724815   AutoSelect=N.A.   AnalSect=TB   MatProp=Default
   Frame=724816   AutoSelect=N.A.   AnalSect=TB   MatProp=Default
   Frame=724817   AutoSelect=N.A.   AnalSect=TB   MatProp=Default
   Frame=724818   AutoSelect=N.A.   AnalSect=TB   MatProp=Default
# ... 15 like lines cut
   Frame=724834   AutoSelect=N.A.   AnalSect=LB   MatProp=Default
   Frame=724835   AutoSelect=N.A.   AnalSect=LB   MatProp=Default
   Frame=724836   AutoSelect=N.A.   AnalSect=LB   MatProp=Default
   Frame=724837   AutoSelect=N.A.   AnalSect=LB   MatProp=Default
   Frame=724838   AutoSelect=N.A.   AnalSect=LB   MatProp=Default
   Frame=724839   AutoSelect=N.A.   AnalSect=LB   MatProp=Default
   Frame=724840   AutoSelect=N.A.   AnalSect=LB   MatProp=Default
   Frame=724841   AutoSelect=N.A.   AnalSect=LB   MatProp=Default
   Frame=724842   AutoSelect=N.A.   AnalSect=LB   MatProp=Default
   Frame=724843   AutoSelect=N.A.   AnalSect=LB   MatProp=Default
   Frame=724844   AutoSelect=N.A.   AnalSect=LB   MatProp=Default
   Frame=724845   AutoSelect=N.A.   AnalSect=LB   MatProp=Default
   Frame=724846   AutoSelect=N.A.   AnalSect=LB   MatProp=Default
   Frame=724847   AutoSelect=N.A.   AnalSect=LB   MatProp=Default
   Frame=724848   AutoSelect=N.A.   AnalSect=LB   MatProp=Default
   Frame=724849   AutoSelect=N.A.   AnalSect=LB   MatProp=Default
   Frame=724850   AutoSelect=N.A.   AnalSect=LB   MatProp=Default
   Frame=724851   AutoSelect=N.A.   AnalSect=LB   MatProp=Default
   Frame=724852   AutoSelect=N.A.   AnalSect=LB   MatProp=Default
   Frame=724853   AutoSelect=N.A.   AnalSect=LB   MatProp=Default
# ... 12 like lines cut
   Frame=724866   AutoSelect=N.A.   AnalSect=EB   MatProp=Default
   Frame=724867   AutoSelect=N.A.   AnalSect=Piles   MatProp=Default
   Frame=724868   AutoSelect=N.A.   AnalSect=Piles   MatProp=Default
   Frame=724869   AutoSelect=N.A.   AnalSect=EB   MatProp=Default
   Frame=724870   AutoSelect=N.A.   AnalSect=Piles   MatProp=Default
   Frame=724871   AutoSelect=N.A.   AnalSect=Piles   MatProp=Default
   Frame=724872   AutoSelect=N.A.   AnalSect=EB   MatProp=Default
   Frame=724873   AutoSelect=N.A.   AnalSect=Piles   MatProp=Default
   Frame=724874   AutoSelect=N.A.   AnalSect=Piles   MatProp=Default
   Frame=724875   AutoSelect=N.A.   AnalSect=EB   MatProp=Default
   Frame=724876   AutoSelect=N.A.   AnalSect=Piles   MatProp=Default
   Frame=724877   AutoSelect=N.A.   AnalSect=Piles   MatProp=Default
   Frame=724878   AutoSelect=N.A.   AnalSect=EB   MatProp=Default
   Frame=724879   AutoSelect=N.A.   AnalSect=Piles   MatProp=Default
   Frame=724880   AutoSelect=N.A.   AnalSect=Piles   MatProp=Default
   Frame=724881   AutoSelect=N.A.   AnalSect=EB   MatProp=Default
   Frame=724882   AutoSelect=N.A.   AnalSect=Piles   MatProp=Default
   Frame=724883   AutoSelect=N.A.   AnalSect=Piles   MatProp=Default
   Frame=724884   AutoSelect=N.A.   AnalSect=EB   MatProp=Default
   Frame=724885   AutoSelect=N.A.   AnalSect=Piles   MatProp=Default
   Frame=724886   AutoSelect=N.A.   AnalSect=Piles   MatProp=Default
   Frame=724887   AutoSelect=N.A.   AnalSect=Piles   MatProp=Default
   Frame=724888   AutoSelect=N.A.   AnalSect=Piles   MatProp=Default
   Frame=724889   AutoSelect=N.A.   AnalSect=Piles   MatProp=Default
   Frame=724890   AutoSelect=N.A.   AnalSect=Piles   MatProp=Default
   Frame=724891   AutoSelect=N.A.   AnalSect=Piles   MatProp=Default
   Frame=724892   AutoSelect=N.A.   AnalSect=Piles   MatProp=Default
   Frame=724893   AutoSelect=N.A.   AnalSect=Piles   MatProp=Default
   Frame=724894   AutoSelect=N.A.   AnalSect=Piles   MatProp=Default
   Frame=724895   AutoSelect=N.A.   AnalSect=Piles   MatProp=Default
   Frame=724896   AutoSelect=N.A.   AnalSect=Piles   MatProp=Default
   Frame=724897   AutoSelect=N.A.   AnalSect=Piles   MatProp=Default
   Frame=724898   AutoSelect=N.A.   AnalSect=Piles   MatProp=Default
   Frame=724899   AutoSelect=N.A.   AnalSect=Piles   MatProp=Default
   Frame=724900   AutoSelect=N.A.   AnalSect=Piles   MatProp=Default
   Frame=724901   AutoSelect=N.A.   AnalSect=Piles   MatProp=Default
   Frame=724902   AutoSelect=N.A.   AnalSect=Piles   MatProp=Default
   Frame=724903   AutoSelect=N.A.   AnalSect=Piles   MatProp=Default
   Frame=724904   AutoSelect=N.A.   AnalSect=Piles   MatProp=Default
# ... 24 like lines cut
   Frame=724929   AutoSelect=N.A.   AnalSect=EB-1   MatProp=Default
   Frame=724930   AutoSelect=N.A.   AnalSect=EB-1   MatProp=Default
   Frame=724931   AutoSelect=N.A.   AnalSect=EB-1   MatProp=Default
   Frame=724932   AutoSelect=N.A.   AnalSect=EB-1   MatProp=Default
   Frame=724933   AutoSelect=N.A.   AnalSect=EB-1   MatProp=Default
   Frame=724934   AutoSelect=N.A.   AnalSect=EB-1   MatProp=Default
 
TABLE:  "FRAME SECTION PROPERTIES 01 - GENERAL"
   SectionName=EB   Material=BTCT   Shape=Rectangular   t3=1.4   t2=2   Area=2.8   TorsConst=1.03873877613333   I33=0.457333333333333   I22=0.933333333333333   I23=0   AS2=2.33333333333333   AS3=2.33333333333333   S33Top=0.653333333333333 _
        S33Bot=0.653333333333333   S22Left=0.933333333333333   S22Right=0.933333333333333   Z33=0.98   Z22=1.4   R33=0.404145188432738   R22=0.577350269189626   CGOffset3=0   CGOffset2=0   EccV2=0   EccV3=0   Cw=0   Color=Yellow _
        FromFile=No   AMod=1   A2Mod=1   A3Mod=1   JMod=1   I2Mod=1   I3Mod=1   MMod=1   WMod=1
   SectionName=EB-1   Material=BTCT   Shape=Rectangular   t3=2   t2=2   Area=4   TorsConst=2.25333333333333   I33=1.33333333333333   I22=1.33333333333333   I23=0   AS2=3.33333333333333   AS3=3.33333333333333   S33Top=1.33333333333333 _
        S33Bot=1.33333333333333   S22Left=1.33333333333333   S22Right=1.33333333333333   Z33=2   Z22=2   R33=0.577350269189626   R22=0.577350269189626   CGOffset3=0   CGOffset2=0   EccV2=0   EccV3=0   Cw=0   Color=Gray8Dark   FromFile=No _
        AMod=1   A2Mod=1   A3Mod=1   JMod=1   I2Mod=1   I3Mod=1   MMod=1   WMod=1
   SectionName=LB   Material=BTCT   Shape=Rectangular   t3=1.4   t2=2   Area=2.8   TorsConst=1.03873877613333   I33=0.457333333333333   I22=0.933333333333333   I23=0   AS2=2.33333333333333   AS3=2.33333333333333   S33Top=0.653333333333333 _
        S33Bot=0.653333333333333   S22Left=0.933333333333333   S22Right=0.933333333333333   Z33=0.98   Z22=1.4   R33=0.404145188432738   R22=0.577350269189626   CGOffset3=0   CGOffset2=0   EccV2=0   EccV3=0   Cw=0   Color=Magenta _
        FromFile=No   AMod=1   A2Mod=1   A3Mod=1   JMod=1   I2Mod=1   I3Mod=1   MMod=1   WMod=1
   SectionName=Piles   Material=BTCTCOC   Shape=Pipe   t3=1.2   tw=0.15   Area=0.494800842940393   TorsConst=0.139162737076985   I33=0.0695813685384927   I22=0.0695813685384927   I23=0   AS2=0.250743670408983   AS3=0.250743670408983 _
        S33Top=0.115968947564155   S33Bot=0.115968947564155   S22Left=0.115968947564155   S22Right=0.115968947564155   Z33=0.1665   Z22=0.1665   R33=0.375   R22=0.375   CGOffset3=0   CGOffset2=0   EccV2=0   EccV3=0   Cw=0   Color=Blue _
        FromFile=No   AMod=1   A2Mod=1   A3Mod=1   JMod=1   I2Mod=1   I3Mod=1   MMod=1   WMod=1
   SectionName=TB   Material=BTCT   Shape=Rectangular   t3=1.4   t2=2   Area=2.8   TorsConst=1.03873877613333   I33=0.457333333333333   I22=0.933333333333333   I23=0   AS2=2.33333333333333   AS3=2.33333333333333   S33Top=0.653333333333333 _
        S33Bot=0.653333333333333   S22Left=0.933333333333333   S22Right=0.933333333333333   Z33=0.98   Z22=1.4   R33=0.404145188432738   R22=0.577350269189626   CGOffset3=0   CGOffset2=0   EccV2=0   EccV3=0   Cw=0   Color=Red   FromFile=No _
        AMod=1   A2Mod=1   A3Mod=1   JMod=1   I2Mod=1   I3Mod=1   MMod=1   WMod=1
 
TABLE:  "FRAME SECTION PROPERTIES 02 - CONCRETE COLUMN"
   SectionName=EB   RebarMatL=A706   RebarMatC=A706   ReinfConfig=Rectangular   LatReinf=Ties   Cover=0.05   NumBars3Dir=2   NumBars2Dir=2   BarSizeL=12d   BarSizeC=10d   SpacingC=0.1   NumCBars2=2   NumCBars3=2   ReinfType=Design
   SectionName=EB-1   RebarMatL=A706   RebarMatC=A706   ReinfConfig=Rectangular   LatReinf=Ties   Cover=0.05   NumBars3Dir=2   NumBars2Dir=2   BarSizeL=12d   BarSizeC=10d   SpacingC=0.1   NumCBars2=2   NumCBars3=2   ReinfType=Design
   SectionName=LB   RebarMatL=A706   RebarMatC=A706   ReinfConfig=Rectangular   LatReinf=Ties   Cover=0.05   NumBars3Dir=2   NumBars2Dir=2   BarSizeL=12d   BarSizeC=10d   SpacingC=0.1   NumCBars2=2   NumCBars3=2   ReinfType=Design
   SectionName=TB   RebarMatL=A706   RebarMatC=A706   ReinfConfig=Rectangular   LatReinf=Ties   Cover=0.05   NumBars3Dir=2   NumBars2Dir=2   BarSizeL=12d   BarSizeC=10d   SpacingC=0.1   NumCBars2=2   NumCBars3=2   ReinfType=Design
 
TABLE:  "FRAME SECTION PROPERTIES 13 - TIME DEPENDENT"
   SectionName=EB   TypeSize=Auto   AutoSFSize=1
   SectionName=EB-1   TypeSize=Auto   AutoSFSize=1
   SectionName=LB   TypeSize=Auto   AutoSFSize=1
   SectionName=Piles   TypeSize=Auto   AutoSFSize=1
   SectionName=TB   TypeSize=Auto   AutoSFSize=1
 
TABLE:  "FUNCTION - PLOT FUNCTIONS"
   PlotFunc="Input Energy"   Type=Energy   Component=Input   Mode=All
 
TABLE:  "FUNCTION - POWER SPECTRAL DENSITY - USER"
   Name=UNIFPSD   Frequency=0   Value=1
   Name=UNIFPSD   Frequency=1   Value=1
 
TABLE:  "FUNCTION - RESPONSE SPECTRUM - USER"
   Name=UNIFRS   Period=0   Accel=1   FuncDamp=0.05
   Name=UNIFRS   Period=1   Accel=1
 
TABLE:  "FUNCTION - STEADY STATE - USER"
   Name=UNIFSS   Frequency=0   Value=1
   Name=UNIFSS   Frequency=1   Value=1
 
TABLE:  "FUNCTION - TIME HISTORY - USER"
   Name=RAMPTH   Time=0   Value=0
   Name=RAMPTH   Time=1   Value=1
   Name=RAMPTH   Time=4   Value=1
   Name=UNIFTH   Time=0   Value=1
   Name=UNIFTH   Time=1   Value=1
 
TABLE:  "GRID LINES"
   CoordSys=GLOBAL   AxisDir=X   GridID=A   XRYZCoord=-10   LineType=Primary   LineColor=Gray8Dark   Visible=Yes   BubbleLoc=End   AllVisible=Yes   BubbleSize=0.9375
   CoordSys=GLOBAL   AxisDir=X   GridID=B   XRYZCoord=-9   LineType=Primary   LineColor=Gray8Dark   Visible=Yes   BubbleLoc=End
   CoordSys=GLOBAL   AxisDir=X   GridID=C   XRYZCoord=-4.5   LineType=Primary   LineColor=Gray8Dark   Visible=Yes   BubbleLoc=End
   CoordSys=GLOBAL   AxisDir=X   GridID=D   XRYZCoord=0   LineType=Primary   LineColor=Gray8Dark   Visible=Yes   BubbleLoc=End
   CoordSys=GLOBAL   AxisDir=X   GridID=E   XRYZCoord=4.5   LineType=Primary   LineColor=Gray8Dark   Visible=Yes   BubbleLoc=End
   CoordSys=GLOBAL   AxisDir=X   GridID=F   XRYZCoord=9   LineType=Primary   LineColor=Gray8Dark   Visible=Yes   BubbleLoc=End
   CoordSys=GLOBAL   AxisDir=X   GridID=G   XRYZCoord=10   LineType=Primary   LineColor=Gray8Dark   Visible=Yes   BubbleLoc=End
   CoordSys=GLOBAL   AxisDir=Y   GridID=1   XRYZCoord=-5.2   LineType=Primary   LineColor=Gray8Dark   Visible=Yes   BubbleLoc=Start
   CoordSys=GLOBAL   AxisDir=Y   GridID=2   XRYZCoord=-4.2   LineType=Primary   LineColor=Gray8Dark   Visible=Yes   BubbleLoc=Start
   CoordSys=GLOBAL   AxisDir=Y   GridID=3   XRYZCoord=0   LineType=Primary   LineColor=Gray8Dark   Visible=Yes   BubbleLoc=Start
   CoordSys=GLOBAL   AxisDir=Y   GridID=4   XRYZCoord=4.2   LineType=Primary   LineColor=Gray8Dark   Visible=Yes   BubbleLoc=Start
   CoordSys=GLOBAL   AxisDir=Y   GridID=5   XRYZCoord=4.8   LineType=Primary   LineColor=Gray8Dark   Visible=Yes   BubbleLoc=Start
   CoordSys=GLOBAL   AxisDir=Z   GridID=Z1   XRYZCoord=0   LineType=Primary   LineColor=Gray8Dark   Visible=Yes   BubbleLoc=End
   CoordSys=GLOBAL   AxisDir=Z   GridID=Z2   XRYZCoord=13   LineType=Primary   LineColor=Gray8Dark   Visible=Yes   BubbleLoc=End
 
TABLE:  "GROUPS 1 - DEFINITIONS"
   GroupName=ALL   Selection=Yes   SectionCut=Yes   Steel=Yes   Concrete=Yes   Aluminum=Yes   ColdFormed=Yes   Stage=Yes   Bridge=Yes   AutoSeismic=No   AutoWind=No   SelDesSteel=No   SelDesAlum=No   SelDesCold=No   MassWeight=Yes   Color=Red
   GroupName=Pile   Selection=Yes   SectionCut=Yes   Steel=Yes   Concrete=Yes   Aluminum=Yes   ColdFormed=Yes   Stage=Yes   Bridge=Yes   AutoSeismic=No   AutoWind=No   SelDesSteel=No   SelDesAlum=No   SelDesCold=No   MassWeight=Yes   Color=Gray8Dark
   GroupName=DN   Selection=Yes   SectionCut=Yes   Steel=Yes   Concrete=Yes   Aluminum=Yes   ColdFormed=Yes   Stage=Yes   Bridge=Yes   AutoSeismic=No   AutoWind=No   SelDesSteel=No   SelDesAlum=No   SelDesCold=No   MassWeight=Yes   Color=Yellow
   GroupName=Pile_Toe   Selection=Yes   SectionCut=Yes   Steel=Yes   Concrete=Yes   Aluminum=Yes   ColdFormed=Yes   Stage=Yes   Bridge=Yes   AutoSeismic=No   AutoWind=No   SelDesSteel=No   SelDesAlum=No   SelDesCold=No   MassWeight=Yes   Color=Green
   GroupName=Pile_Bend   Selection=Yes   SectionCut=Yes   Steel=Yes   Concrete=Yes   Aluminum=Yes   ColdFormed=Yes   Stage=Yes   Bridge=Yes   AutoSeismic=No   AutoWind=No   SelDesSteel=No   SelDesAlum=No   SelDesCold=No   MassWeight=Yes   Color=Cyan
   GroupName=Beam   Selection=Yes   SectionCut=Yes   Steel=Yes   Concrete=Yes   Aluminum=Yes   ColdFormed=Yes   Stage=Yes   Bridge=Yes   AutoSeismic=No   AutoWind=No   SelDesSteel=No   SelDesAlum=No   SelDesCold=No   MassWeight=Yes   Color=Blue
   GroupName=Piles   Selection=Yes   SectionCut=Yes   Steel=Yes   Concrete=Yes   Aluminum=Yes   ColdFormed=Yes   Stage=Yes   Bridge=Yes   AutoSeismic=No   AutoWind=No   SelDesSteel=No   SelDesAlum=No   SelDesCold=No   MassWeight=Yes   Color=Red
   GroupName=Beams   Selection=Yes   SectionCut=Yes   Steel=Yes   Concrete=Yes   Aluminum=Yes   ColdFormed=Yes   Stage=Yes   Bridge=Yes   AutoSeismic=No   AutoWind=No   SelDesSteel=No   SelDesAlum=No   SelDesCold=No   MassWeight=Yes   Color=Magenta
 
TABLE:  "GROUPS 2 - ASSIGNMENTS"
 
TABLE:  "JOINT COORDINATES"
   Joint=624866   CoordSys=GLOBAL   CoordType=Cartesian   XorR=-9   Y=-5   Z=0   SpecialJt=No   GUID=38dd2c70-fdf6-4df5-ab95-05b3da921977
   Joint=624867   CoordSys=GLOBAL   CoordType=Cartesian   XorR=-9   Y=-4.5   Z=0   SpecialJt=No   GUID=980e7365-eee1-47b2-ac39-4e8885f22bba
   Joint=624868   CoordSys=GLOBAL   CoordType=Cartesian   XorR=-6   Y=-5   Z=0   SpecialJt=No   GUID=ee913e1e-bdd0-484a-88e9-ed1a94846834
   Joint=624869   CoordSys=GLOBAL   CoordType=Cartesian   XorR=-6   Y=-4.5   Z=0   SpecialJt=No   GUID=b2fb41c9-940d-4f92-8d3f-a404a4c4efaf
   Joint=624870   CoordSys=GLOBAL   CoordType=Cartesian   XorR=-3   Y=-5   Z=0   SpecialJt=No   GUID=bffc5b8a-72be-4dd5-882e-067ab38959a5
   Joint=624871   CoordSys=GLOBAL   CoordType=Cartesian   XorR=-3   Y=-4.5   Z=0   SpecialJt=No   GUID=5739821e-a1e6-4786-9a58-e09daad5772d
   Joint=624872   CoordSys=GLOBAL   CoordType=Cartesian   XorR=0   Y=-5   Z=0   SpecialJt=No   GUID=42fba8ca-563e-430e-a5ac-eb73ee5b0520
   Joint=624873   CoordSys=GLOBAL   CoordType=Cartesian   XorR=0   Y=-4.5   Z=0   SpecialJt=No   GUID=b8aa4ed9-b397-484a-89ab-40ea1798e9a7
   Joint=624874   CoordSys=GLOBAL   CoordType=Cartesian   XorR=3   Y=-5   Z=0   SpecialJt=No   GUID=e4f2d834-6ecb-4366-a7ad-5d9450262f7d
   Joint=624875   CoordSys=GLOBAL   CoordType=Cartesian   XorR=3   Y=-4.5   Z=0   SpecialJt=No   GUID=c435269c-6dde-4abd-89c1-7301a9ee29ff
   Joint=624876   CoordSys=GLOBAL   CoordType=Cartesian   XorR=6   Y=-5   Z=0   SpecialJt=No   GUID=04b94a07-b87f-4d23-ba05-21b4c75b9acf
   Joint=624877   CoordSys=GLOBAL   CoordType=Cartesian   XorR=6   Y=-4.5   Z=0   SpecialJt=No   GUID=0ab9cea0-c95e-495c-be5b-b9e09e2de1bb
   Joint=624878   CoordSys=GLOBAL   CoordType=Cartesian   XorR=9   Y=-5   Z=0   SpecialJt=No   GUID=b4f75255-e08a-47d3-8ec6-c3431be5e633
   Joint=624879   CoordSys=GLOBAL   CoordType=Cartesian   XorR=9   Y=-4.5   Z=0   SpecialJt=No   GUID=12f0eb8e-4fb5-47f1-93f1-95d8b454282e
   Joint=624880   CoordSys=GLOBAL   CoordType=Cartesian   XorR=-9   Y=-1.5   Z=0   SpecialJt=No   GUID=cb927439-7034-48bf-86f1-cff48a9632fb
   Joint=624881   CoordSys=GLOBAL   CoordType=Cartesian   XorR=-6   Y=-1.5   Z=0   SpecialJt=No   GUID=a230520b-d6fa-446f-98f8-b11ff0f5d562
   Joint=624882   CoordSys=GLOBAL   CoordType=Cartesian   XorR=-3   Y=-1.5   Z=0   SpecialJt=No   GUID=3430970a-87ae-4ac5-8eb0-ad77d9771bf3
   Joint=624883   CoordSys=GLOBAL   CoordType=Cartesian   XorR=0   Y=-1.5   Z=0   SpecialJt=No   GUID=cf7d239f-59d0-48c4-b3a3-1b556f0c5382
   Joint=624884   CoordSys=GLOBAL   CoordType=Cartesian   XorR=3   Y=-1.5   Z=0   SpecialJt=No   GUID=6bade8bf-bafa-4eda-b73d-21d2da27933f
   Joint=624885   CoordSys=GLOBAL   CoordType=Cartesian   XorR=6   Y=-1.5   Z=0   SpecialJt=No   GUID=ad347fd9-92be-425c-8acb-27efec2b88cf
   Joint=624886   CoordSys=GLOBAL   CoordType=Cartesian   XorR=9   Y=-1.5   Z=0   SpecialJt=No   GUID=f0dc57bd-3feb-4172-89ab-c97e45ae5e02
   Joint=624887   CoordSys=GLOBAL   CoordType=Cartesian   XorR=-9   Y=1.5   Z=0   SpecialJt=No   GUID=61657753-35f2-44d8-8d9b-5d4c74a6e2ca
   Joint=624888   CoordSys=GLOBAL   CoordType=Cartesian   XorR=-6   Y=1.5   Z=0   SpecialJt=No   GUID=4b23d710-2ae5-41b4-b9ea-b74c32163308
   Joint=624889   CoordSys=GLOBAL   CoordType=Cartesian   XorR=-3   Y=1.5   Z=0   SpecialJt=No   GUID=ab45291a-2be8-4d8c-8d50-b07e346f9d45
   Joint=624890   CoordSys=GLOBAL   CoordType=Cartesian   XorR=0   Y=1.5   Z=0   SpecialJt=No   GUID=7759eb21-1969-441a-9276-3bee5083e109
   Joint=624891   CoordSys=GLOBAL   CoordType=Cartesian   XorR=3   Y=1.5   Z=0   SpecialJt=No   GUID=fd325ab7-b9f3-4711-8c0a-19474b58012f
   Joint=624892   CoordSys=GLOBAL   CoordType=Cartesian   XorR=6   Y=1.5   Z=0   SpecialJt=No   GUID=c293906f-dc26-4591-b537-891c4ea050a4
   Joint=624893   CoordSys=GLOBAL   CoordType=Cartesian   XorR=9   Y=1.5   Z=0   SpecialJt=No   GUID=8b15d44e-39cd-44d9-a798-aef958fd4981
   Joint=624894   CoordSys=GLOBAL   CoordType=Cartesian   XorR=-9   Y=4.5   Z=0   SpecialJt=No   GUID=56951d56-5c83-47fa-9ab6-312dce3ed3e6
   Joint=624895   CoordSys=GLOBAL   CoordType=Cartesian   XorR=-6   Y=4.5   Z=0   SpecialJt=No   GUID=3e8c104a-f81c-4204-b7ed-d6a948f65b98
   Joint=624896   CoordSys=GLOBAL   CoordType=Cartesian   XorR=-3   Y=4.5   Z=0   SpecialJt=No   GUID=48346e55-55bc-42bf-b3d4-073dd8355625
   Joint=624897   CoordSys=GLOBAL   CoordType=Cartesian   XorR=0   Y=4.5   Z=0   SpecialJt=No   GUID=10d3e0d3-2449-49da-80e5-a60840163576
   Joint=624898   CoordSys=GLOBAL   CoordType=Cartesian   XorR=3   Y=4.5   Z=0   SpecialJt=No   GUID=009b100b-a29a-497a-b08c-671c258fd91f
   Joint=624899   CoordSys=GLOBAL   CoordType=Cartesian   XorR=6   Y=4.5   Z=0   SpecialJt=No   GUID=1a6c150c-3e7b-47f6-b67e-04425001e99a
   Joint=624900   CoordSys=GLOBAL   CoordType=Cartesian   XorR=9   Y=4.5   Z=0   SpecialJt=No   GUID=5c5b7678-ea09-4e81-b1ff-324653432842
   Joint=624901   CoordSys=GLOBAL   CoordType=Cartesian   XorR=-9   Y=5   Z=0   SpecialJt=No   GUID=28c0a56b-a9b9-4306-9f7c-46a8bd714b52
   Joint=624902   CoordSys=GLOBAL   CoordType=Cartesian   XorR=-6   Y=5   Z=0   SpecialJt=No   GUID=c9f0e265-1ebb-4371-ae19-b2d9c5594ea4
   Joint=624903   CoordSys=GLOBAL   CoordType=Cartesian   XorR=-3   Y=5   Z=0   SpecialJt=No   GUID=36104e90-29fc-4e27-90ad-8c67dfd7c600
   Joint=624904   CoordSys=GLOBAL   CoordType=Cartesian   XorR=0   Y=5   Z=0   SpecialJt=No   GUID=234cb201-5494-409a-a2ce-b1697e2f403a
   Joint=624905   CoordSys=GLOBAL   CoordType=Cartesian   XorR=3   Y=5   Z=0   SpecialJt=No   GUID=486f3dce-aaef-4d58-9924-14a5118433c8
   Joint=624906   CoordSys=GLOBAL   CoordType=Cartesian   XorR=6   Y=5   Z=0   SpecialJt=No   GUID=9006eddf-ac53-4bd2-9d94-0447aa286267
   Joint=624907   CoordSys=GLOBAL   CoordType=Cartesian   XorR=9   Y=5   Z=0   SpecialJt=No   GUID=b5897e07-6dcb-4fca-8e1b-a7e9a400526c
   Joint=624908   CoordSys=GLOBAL   CoordType=Cartesian   XorR=-10   Y=-4.5   Z=0   SpecialJt=No   GUID=eb6a1086-85ff-4018-9266-7c39a72a0819
   Joint=624909   CoordSys=GLOBAL   CoordType=Cartesian   XorR=-10   Y=-1.5   Z=0   SpecialJt=No   GUID=321634e6-158b-46fe-8bc2-b792f6da6e1a
   Joint=624910   CoordSys=GLOBAL   CoordType=Cartesian   XorR=-10   Y=1.5   Z=0   SpecialJt=No   GUID=2d91307a-6d0e-4728-8beb-9038932b0fc5
   Joint=624911   CoordSys=GLOBAL   CoordType=Cartesian   XorR=-10   Y=4.5   Z=0   SpecialJt=No   GUID=eca21ebd-b666-4ae7-b008-420fad5b1665
   Joint=624912   CoordSys=GLOBAL   CoordType=Cartesian   XorR=10   Y=-4.5   Z=0   SpecialJt=No   GUID=8bbe348d-5d2d-43ca-be5b-e96af91fbae0
   Joint=624913   CoordSys=GLOBAL   CoordType=Cartesian   XorR=10   Y=-1.5   Z=0   SpecialJt=No   GUID=9cd90b3a-d16c-47e3-9631-6476af4b3f8a
   Joint=624914   CoordSys=GLOBAL   CoordType=Cartesian   XorR=10   Y=1.5   Z=0   SpecialJt=No   GUID=974140f3-6f90-40b3-80f0-2092ee9dcc09
   Joint=624915   CoordSys=GLOBAL   CoordType=Cartesian   XorR=10   Y=4.5   Z=0   SpecialJt=No   GUID=1ce42781-6509-4c40-b53a-98337795c547
   Joint=624916   CoordSys=GLOBAL   CoordType=Cartesian   XorR=-9   Y=-4.5   Z=-3   SpecialJt=No   GUID=4be9bf45-893b-452b-b6cf-a27b966fe61c
   Joint=624917   CoordSys=GLOBAL   CoordType=Cartesian   XorR=-9   Y=-4.5   Z=-16.7344389692158   SpecialJt=No   GUID=80dd8a32-4bc0-444e-b41c-bedd68170526
   Joint=624918   CoordSys=GLOBAL   CoordType=Cartesian   XorR=-9   Y=-4.5   Z=-16.8   SpecialJt=No   GUID=d1280253-5f05-4c47-95a6-e504676038c8
   Joint=624919   CoordSys=GLOBAL   CoordType=Cartesian   XorR=-6   Y=-4.5   Z=-3   SpecialJt=No   GUID=7f6463c5-4dfd-4da0-9c4d-7341e53b8944
   Joint=624920   CoordSys=GLOBAL   CoordType=Cartesian   XorR=-6   Y=-4.5   Z=-16.7344389692158   SpecialJt=No   GUID=1aa5d5da-4a6f-4c94-bc1d-ba9396c2d4b7
   Joint=624921   CoordSys=GLOBAL   CoordType=Cartesian   XorR=-6   Y=-4.5   Z=-16.8   SpecialJt=No   GUID=9496be7a-0d1d-4f78-b4e5-5a975114a3eb
   Joint=624922   CoordSys=GLOBAL   CoordType=Cartesian   XorR=-3   Y=-4.5   Z=-3   SpecialJt=No   GUID=61e28601-8bea-4e34-9e64-89c55ef2ccbf
   Joint=624923   CoordSys=GLOBAL   CoordType=Cartesian   XorR=-3   Y=-4.5   Z=-16.7344389692158   SpecialJt=No   GUID=1b7394d2-8425-4146-98cb-da9dad7cd561
   Joint=624924   CoordSys=GLOBAL   CoordType=Cartesian   XorR=-3   Y=-4.5   Z=-16.8   SpecialJt=No   GUID=5dfa0664-3b10-45b6-a728-ae883193904a
   Joint=624925   CoordSys=GLOBAL   CoordType=Cartesian   XorR=0   Y=-4.5   Z=-3   SpecialJt=No   GUID=293909ad-2645-400c-aa8e-4525220e73e0
   Joint=624926   CoordSys=GLOBAL   CoordType=Cartesian   XorR=0   Y=-4.5   Z=-16.7344389692158   SpecialJt=No   GUID=5341bd51-3b35-4ab9-b993-12359c3c2ae9
   Joint=624927   CoordSys=GLOBAL   CoordType=Cartesian   XorR=0   Y=-4.5   Z=-16.8   SpecialJt=No   GUID=442e87ed-4ef8-47b4-9a67-a3250538fb05
   Joint=624928   CoordSys=GLOBAL   CoordType=Cartesian   XorR=3   Y=-4.5   Z=-3   SpecialJt=No   GUID=b228c0ef-9bf8-4a61-a5e2-6bc1582291ce
   Joint=624929   CoordSys=GLOBAL   CoordType=Cartesian   XorR=3   Y=-4.5   Z=-16.7344389692158   SpecialJt=No   GUID=a1dfaf06-8a10-4888-b902-2868fedb57a5
   Joint=624930   CoordSys=GLOBAL   CoordType=Cartesian   XorR=3   Y=-4.5   Z=-16.8   SpecialJt=No   GUID=74e981b1-2cf4-423a-bd1a-d75278ba70ae
   Joint=624931   CoordSys=GLOBAL   CoordType=Cartesian   XorR=6   Y=-4.5   Z=-3   SpecialJt=No   GUID=ce321230-cd7f-4d1e-b2dd-61fed9a0639f
   Joint=624932   CoordSys=GLOBAL   CoordType=Cartesian   XorR=6   Y=-4.5   Z=-16.7344389692158   SpecialJt=No   GUID=193b47c8-df89-4399-b28a-64fceab8564e
   Joint=624933   CoordSys=GLOBAL   CoordType=Cartesian   XorR=6   Y=-4.5   Z=-16.8   SpecialJt=No   GUID=da3dd28f-28ad-46fc-b84c-ceeaf01e75f2
   Joint=624934   CoordSys=GLOBAL   CoordType=Cartesian   XorR=9   Y=-4.5   Z=-3   SpecialJt=No   GUID=660fec7f-723b-4677-a5f7-5a8f09f84c15
   Joint=624935   CoordSys=GLOBAL   CoordType=Cartesian   XorR=9   Y=-4.5   Z=-16.7344389692158   SpecialJt=No   GUID=35e202f7-5de2-4eb9-a212-e7dcbac0131c
   Joint=624936   CoordSys=GLOBAL   CoordType=Cartesian   XorR=9   Y=-4.5   Z=-16.8   SpecialJt=No   GUID=71edc10b-7b74-4168-bb1b-0b6edd80ac63
   Joint=624937   CoordSys=GLOBAL   CoordType=Cartesian   XorR=-9   Y=-1.5   Z=-16.7344389692158   SpecialJt=No   GUID=dc097fd6-711f-496f-ba0a-546e045781a9
   Joint=624938   CoordSys=GLOBAL   CoordType=Cartesian   XorR=-9   Y=-1.5   Z=-16.8   SpecialJt=No   GUID=c9a66d9b-f6d3-4295-bf59-7c6a7ef40629
   Joint=624939   CoordSys=GLOBAL   CoordType=Cartesian   XorR=-6   Y=-1.5   Z=-16.7344389692158   SpecialJt=No   GUID=49d4646d-6fc9-4242-a777-dcdf2d46c300
   Joint=624940   CoordSys=GLOBAL   CoordType=Cartesian   XorR=-6   Y=-1.5   Z=-16.8   SpecialJt=No   GUID=53cd2839-07d0-4bb6-b4ca-cbc63fd8ba8d
   Joint=624941   CoordSys=GLOBAL   CoordType=Cartesian   XorR=-3   Y=-1.5   Z=-16.7344389692158   SpecialJt=No   GUID=ccf87ad2-abd7-4b3b-ac64-505c1604ebc3
   Joint=624942   CoordSys=GLOBAL   CoordType=Cartesian   XorR=-3   Y=-1.5   Z=-16.8   SpecialJt=No   GUID=d56dcb12-cc13-4b95-8764-95d75e7499f8
   Joint=624943   CoordSys=GLOBAL   CoordType=Cartesian   XorR=0   Y=-1.5   Z=-16.7344389692158   SpecialJt=No   GUID=acb10aa6-37a6-45ab-841c-2255b27954b8
   Joint=624944   CoordSys=GLOBAL   CoordType=Cartesian   XorR=0   Y=-1.5   Z=-16.8   SpecialJt=No   GUID=4ddf6abc-1eea-428d-9c51-167c99e8e32e
   Joint=624945   CoordSys=GLOBAL   CoordType=Cartesian   XorR=3   Y=-1.5   Z=-16.7344389692158   SpecialJt=No   GUID=5991e2f5-3a91-4f7f-acf1-98d64cf23e5e
   Joint=624946   CoordSys=GLOBAL   CoordType=Cartesian   XorR=3   Y=-1.5   Z=-16.8   SpecialJt=No   GUID=298cfa20-e842-42db-b43d-8b4e8fc93536
   Joint=624947   CoordSys=GLOBAL   CoordType=Cartesian   XorR=6   Y=-1.5   Z=-16.7344389692158   SpecialJt=No   GUID=6b672807-1c14-4397-ab15-f786d9fbed6f
   Joint=624948   CoordSys=GLOBAL   CoordType=Cartesian   XorR=6   Y=-1.5   Z=-16.8   SpecialJt=No   GUID=d18b429b-3325-4d7e-b206-2147ebf62225
   Joint=624949   CoordSys=GLOBAL   CoordType=Cartesian   XorR=9   Y=-1.5   Z=-16.7344389692158   SpecialJt=No   GUID=1e600ce3-8b5e-467b-9095-951e8a0d9f81
   Joint=624950   CoordSys=GLOBAL   CoordType=Cartesian   XorR=9   Y=-1.5   Z=-16.8   SpecialJt=No   GUID=88919bf9-cf40-4926-9e81-9f961d52cb27
   Joint=624951   CoordSys=GLOBAL   CoordType=Cartesian   XorR=-9   Y=1.5   Z=-16.7344389692158   SpecialJt=No   GUID=4f6089ed-f2fd-463f-86fc-008a6ba36d50
   Joint=624952   CoordSys=GLOBAL   CoordType=Cartesian   XorR=-9   Y=1.5   Z=-16.8   SpecialJt=No   GUID=d18bf3c2-d32b-43df-a40c-702ee7cb2941
   Joint=624953   CoordSys=GLOBAL   CoordType=Cartesian   XorR=-6   Y=1.5   Z=-16.7344389692158   SpecialJt=No   GUID=1fde3e12-d071-493f-a004-ca813e9f4ac5
   Joint=624954   CoordSys=GLOBAL   CoordType=Cartesian   XorR=-6   Y=1.5   Z=-16.8   SpecialJt=No   GUID=c648acb8-ce5b-443e-9b32-8c3d6df863dd
   Joint=624955   CoordSys=GLOBAL   CoordType=Cartesian   XorR=-3   Y=1.5   Z=-16.7344389692158   SpecialJt=No   GUID=88b0064e-4dcc-42d8-b4d5-9fa157db078b
   Joint=624956   CoordSys=GLOBAL   CoordType=Cartesian   XorR=-3   Y=1.5   Z=-16.8   SpecialJt=No   GUID=79c6173e-5821-40fd-af38-8559c52d3047
   Joint=624957   CoordSys=GLOBAL   CoordType=Cartesian   XorR=0   Y=1.5   Z=-16.7344389692158   SpecialJt=No   GUID=bd33c3fb-6aa5-49d7-a1f1-d4e9f0c70c2a
   Joint=624958   CoordSys=GLOBAL   CoordType=Cartesian   XorR=0   Y=1.5   Z=-16.8   SpecialJt=No   GUID=95c1b2dd-88f8-4813-8505-047629be3599
   Joint=624959   CoordSys=GLOBAL   CoordType=Cartesian   XorR=3   Y=1.5   Z=-16.7344389692158   SpecialJt=No   GUID=2a9b9dcd-246c-4c25-8dee-8560be7ddabc
   Joint=624960   CoordSys=GLOBAL   CoordType=Cartesian   XorR=3   Y=1.5   Z=-16.8   SpecialJt=No   GUID=1d3b8e34-e2b0-4dee-b8a6-9df18f5dffde
   Joint=624961   CoordSys=GLOBAL   CoordType=Cartesian   XorR=6   Y=1.5   Z=-16.7344389692158   SpecialJt=No   GUID=9137d4ce-fa04-43da-9814-857d01d63e46
   Joint=624962   CoordSys=GLOBAL   CoordType=Cartesian   XorR=6   Y=1.5   Z=-16.8   SpecialJt=No   GUID=f46cf8ef-ed93-4948-bc63-95e4c28cc963
   Joint=624963   CoordSys=GLOBAL   CoordType=Cartesian   XorR=9   Y=1.5   Z=-16.7344389692158   SpecialJt=No   GUID=75e88a40-01aa-4fd6-95d3-d9ac0658b0dd
   Joint=624964   CoordSys=GLOBAL   CoordType=Cartesian   XorR=9   Y=1.5   Z=-16.8   SpecialJt=No   GUID=69437a79-edb0-494e-9af0-58a5198ae9c0
   Joint=624965   CoordSys=GLOBAL   CoordType=Cartesian   XorR=-9   Y=4.5   Z=-16.7344389692158   SpecialJt=No   GUID=99b9b4d1-fc61-4e3f-954f-1ed14108db4f
   Joint=624966   CoordSys=GLOBAL   CoordType=Cartesian   XorR=-9   Y=4.5   Z=-16.8   SpecialJt=No   GUID=2f9002d5-eb2f-49b2-a918-3c96463dcf27
   Joint=624967   CoordSys=GLOBAL   CoordType=Cartesian   XorR=-6   Y=4.5   Z=-16.7344389692158   SpecialJt=No   GUID=e85a7350-f1ca-4831-8d29-21cc5fa04e76
   Joint=624968   CoordSys=GLOBAL   CoordType=Cartesian   XorR=-6   Y=4.5   Z=-16.8   SpecialJt=No   GUID=f49375c3-8b8e-4922-aa3b-1f0e80cd85ba
   Joint=624969   CoordSys=GLOBAL   CoordType=Cartesian   XorR=-3   Y=4.5   Z=-16.7344389692158   SpecialJt=No   GUID=55ad8e4f-049a-4209-b444-aa70ef1b6439
   Joint=624970   CoordSys=GLOBAL   CoordType=Cartesian   XorR=-3   Y=4.5   Z=-16.8   SpecialJt=No   GUID=43bfa13f-65b0-4a49-8d33-d9bd7ed4fcb7
   Joint=624971   CoordSys=GLOBAL   CoordType=Cartesian   XorR=0   Y=4.5   Z=-16.7344389692158   SpecialJt=No   GUID=2ee8655e-1427-402e-8ae6-cddbf3992d33
   Joint=624972   CoordSys=GLOBAL   CoordType=Cartesian   XorR=0   Y=4.5   Z=-16.8   SpecialJt=No   GUID=ec1da7f4-23f2-46b0-a54c-f7842325f126
   Joint=624973   CoordSys=GLOBAL   CoordType=Cartesian   XorR=3   Y=4.5   Z=-16.7344389692158   SpecialJt=No   GUID=a85015c5-c7be-49f7-ade4-9124d26cf6e3
   Joint=624974   CoordSys=GLOBAL   CoordType=Cartesian   XorR=3   Y=4.5   Z=-16.8   SpecialJt=No   GUID=cf3744ea-f781-4d9b-932c-c7b6973ad0ce
   Joint=624975   CoordSys=GLOBAL   CoordType=Cartesian   XorR=6   Y=4.5   Z=-16.7344389692158   SpecialJt=No   GUID=0d1cbda5-3519-4a7a-a39d-86473a6e3f8d
   Joint=624976   CoordSys=GLOBAL   CoordType=Cartesian   XorR=6   Y=4.5   Z=-16.8   SpecialJt=No   GUID=5ac1e84d-f80e-44ca-8f40-ced459f4642b
   Joint=624977   CoordSys=GLOBAL   CoordType=Cartesian   XorR=9   Y=4.5   Z=-16.7344389692158   SpecialJt=No   GUID=cf6a8bfb-ec56-453d-a585-a55e930920d0
   Joint=624978   CoordSys=GLOBAL   CoordType=Cartesian   XorR=9   Y=4.5   Z=-16.8   SpecialJt=No   GUID=f027b402-794d-4070-a680-693dee1c8954
   Joint=624979   CoordSys=GLOBAL   CoordType=Cartesian   XorR=-10   Y=-5   Z=0   SpecialJt=No   GUID=6070febd-2dbd-49bb-a283-bbd9055b8b19
   Joint=624980   CoordSys=GLOBAL   CoordType=Cartesian   XorR=10   Y=-5   Z=0   SpecialJt=No   GUID=d85a59b2-61b5-4f5b-a653-80a3d647a8e2
   Joint=624981   CoordSys=GLOBAL   CoordType=Cartesian   XorR=-10   Y=5   Z=0   SpecialJt=No   GUID=61a31a74-44d1-49cd-87eb-506568b707d4
   Joint=624982   CoordSys=GLOBAL   CoordType=Cartesian   XorR=10   Y=5   Z=0   SpecialJt=No   GUID=afba7097-3e45-4f21-89bd-152fe558ed78
 
TABLE:  "JOINT PATTERN DEFINITIONS"
   Pattern=Default
 
TABLE:  "JOINT RESTRAINT ASSIGNMENTS"
   Joint=624917   U1=Yes   U2=Yes   U3=No   R1=Yes   R2=Yes   R3=Yes
   Joint=624918   U1=No   U2=No   U3=Yes   R1=No   R2=No   R3=No
   Joint=624920   U1=Yes   U2=Yes   U3=No   R1=Yes   R2=Yes   R3=Yes
   Joint=624921   U1=No   U2=No   U3=Yes   R1=No   R2=No   R3=No
   Joint=624923   U1=Yes   U2=Yes   U3=No   R1=Yes   R2=Yes   R3=Yes
   Joint=624924   U1=No   U2=No   U3=Yes   R1=No   R2=No   R3=No
   Joint=624926   U1=Yes   U2=Yes   U3=No   R1=Yes   R2=Yes   R3=Yes
   Joint=624927   U1=No   U2=No   U3=Yes   R1=No   R2=No   R3=No
   Joint=624929   U1=Yes   U2=Yes   U3=No   R1=Yes   R2=Yes   R3=Yes
   Joint=624930   U1=No   U2=No   U3=Yes   R1=No   R2=No   R3=No
   Joint=624932   U1=Yes   U2=Yes   U3=No   R1=Yes   R2=Yes   R3=Yes
   Joint=624933   U1=No   U2=No   U3=Yes   R1=No   R2=No   R3=No
   Joint=624935   U1=Yes   U2=Yes   U3=No   R1=Yes   R2=Yes   R3=Yes
   Joint=624936   U1=No   U2=No   U3=Yes   R1=No   R2=No   R3=No
   Joint=624937   U1=Yes   U2=Yes   U3=No   R1=Yes   R2=Yes   R3=Yes
   Joint=624938   U1=No   U2=No   U3=Yes   R1=No   R2=No   R3=No
   Joint=624939   U1=Yes   U2=Yes   U3=No   R1=Yes   R2=Yes   R3=Yes
   Joint=624940   U1=No   U2=No   U3=Yes   R1=No   R2=No   R3=No
   Joint=624941   U1=Yes   U2=Yes   U3=No   R1=Yes   R2=Yes   R3=Yes
   Joint=624942   U1=No   U2=No   U3=Yes   R1=No   R2=No   R3=No
   Joint=624943   U1=Yes   U2=Yes   U3=No   R1=Yes   R2=Yes   R3=Yes
   Joint=624944   U1=No   U2=No   U3=Yes   R1=No   R2=No   R3=No
   Joint=624945   U1=Yes   U2=Yes   U3=No   R1=Yes   R2=Yes   R3=Yes
   Joint=624946   U1=No   U2=No   U3=Yes   R1=No   R2=No   R3=No
   Joint=624947   U1=Yes   U2=Yes   U3=No   R1=Yes   R2=Yes   R3=Yes
   Joint=624948   U1=No   U2=No   U3=Yes   R1=No   R2=No   R3=No
   Joint=624949   U1=Yes   U2=Yes   U3=No   R1=Yes   R2=Yes   R3=Yes
   Joint=624950   U1=No   U2=No   U3=Yes   R1=No   R2=No   R3=No
   Joint=624951   U1=Yes   U2=Yes   U3=No   R1=Yes   R2=Yes   R3=Yes
   Joint=624952   U1=No   U2=No   U3=Yes   R1=No   R2=No   R3=No
   Joint=624953   U1=Yes   U2=Yes   U3=No   R1=Yes   R2=Yes   R3=Yes
   Joint=624954   U1=No   U2=No   U3=Yes   R1=No   R2=No   R3=No
   Joint=624955   U1=Yes   U2=Yes   U3=No   R1=Yes   R2=Yes   R3=Yes
   Joint=624956   U1=No   U2=No   U3=Yes   R1=No   R2=No   R3=No
   Joint=624957   U1=Yes   U2=Yes   U3=No   R1=Yes   R2=Yes   R3=Yes
   Joint=624958   U1=No   U2=No   U3=Yes   R1=No   R2=No   R3=No
   Joint=624959   U1=Yes   U2=Yes   U3=No   R1=Yes   R2=Yes   R3=Yes
   Joint=624960   U1=No   U2=No   U3=Yes   R1=No   R2=No   R3=No
   Joint=624961   U1=Yes   U2=Yes   U3=No   R1=Yes   R2=Yes   R3=Yes
   Joint=624962   U1=No   U2=No   U3=Yes   R1=No   R2=No   R3=No
# ... 16 like lines cut
 
TABLE:  "LOAD CASE DEFINITIONS"
   Case=DEAD   Type=LinStatic   InitialCond=Zero   DesTypeOpt="Prog Det"   DesignType=Dead   DesActOpt="Prog Det"   DesignAct=Non-Composite   AutoType=None   RunCase=Yes
   Case=MODAL   Type=LinModal   InitialCond=Zero   DesTypeOpt="Prog Det"   DesignType=Other   DesActOpt="Prog Det"   DesignAct=Other   AutoType=None   RunCase=Yes
   Case=LL   Type=LinStatic   InitialCond=Zero   DesTypeOpt="Prog Det"   DesignType=Live   DesActOpt="Prog Det"   DesignAct="Short-Term Composite"   AutoType=None   RunCase=Yes
 
TABLE:  "LOAD PATTERN DEFINITIONS"
   LoadPat=DEAD   DesignType=Dead   SelfWtMult=1
   LoadPat=LL   DesignType=Live   SelfWtMult=0
 
TABLE:  "MASS SOURCE"
   MassSource=MSSSRC1   Elements=Yes   Masses=Yes   Loads=No   IsDefault=Yes
 
TABLE:  "MATERIAL PROPERTIES 01 - GENERAL"
   Material=A706   Type=Rebar   SymType=Uniaxial   TempDepend=No   Color=Gray8Dark   GUID=30185aab-1311-4f4b-9ffe-ddad707d22d9   Notes="ASTM A706 added 8/23/2025 4:27:57 PM"
   Material=BTCT   Type=Concrete   SymType=Isotropic   TempDepend=No   Color=Blue   Notes="Concrete added 24-Feb-23 16:30:01"
   Material=BTCTCOC   Type=Concrete   SymType=Isotropic   TempDepend=No   Color=Blue   Notes="Concrete added 24-Feb-23 16:30:01"
   Material=Steel   Type=Steel   SymType=Isotropic   TempDepend=No   Color=Magenta   GUID=2f952889-4898-4964-97a4-5fb5c5008d33   Notes="Steel added 8/24/2025 2:51:43 PM"
   Material=Tendon   Type=Tendon   SymType=Uniaxial   TempDepend=No   Color=Yellow   GUID=7dfcd093-823e-4b3a-b96f-35d5bcaf456f   Notes="Tendon added 8/24/2025 2:51:43 PM"
 
TABLE:  "MATERIAL PROPERTIES 02 - BASIC MECHANICAL PROPERTIES"
   Material=A706   UnitWeight=7.84904757236607   UnitMass=0.800380070686609   E1=20389019.1580383   A1=1.16999994421006E-05
   Material=BTCT   UnitWeight=2.40276966501002   UnitMass=0.245014307353044   E1=2900000   G12=1208333.33333333   U12=0.2   A1=9.9E-06
   Material=BTCTCOC   UnitWeight=2.40276966501002   UnitMass=0.245014307353044   E1=3800000000   G12=1583333333.33333   U12=0.2   A1=9.9E-06
   Material=Steel   UnitWeight=7.84904757236607   UnitMass=0.800380070686609   E1=20389019.1580383   G12=7841930.44539935   U12=0.3   A1=1.17E-05
   Material=Tendon   UnitWeight=7.84904757236607   UnitMass=0.800380070686609   E1=20037484.3449687   A1=1.16999994421006E-05
 
TABLE:  "MATERIAL PROPERTIES 03A - STEEL DATA"
   Material=Steel   Fy=35153.4813069626   Fu=45699.5256990514   EffFy=38668.8294376589   EffFu=50269.4782689565   SSCurveOpt=Simple   SSHysType=Kinematic   SHard=0.015   SMax=0.11   SRup=0.17   FinalSlope=-0.1   CoupModType="Von Mises"
 
TABLE:  "MATERIAL PROPERTIES 03B - CONCRETE DATA"
   Material=BTCT   Fc=2812.27850455701   eFc=2812.27850455701   LtWtConc=No   SSCurveOpt=Mander   SSHysType=Takeda   SFc=0.002   SCap=0.005   FinalSlope=-0.1   FAngle=0   DAngle=0   CoupModType="Modified Darwin-Pecknold"
   Material=BTCTCOC   Fc=2812.27850455701   eFc=2812.27850455701   LtWtConc=No   SSCurveOpt=Mander   SSHysType=Takeda   SFc=0.002   SCap=0.005   FinalSlope=-0.1   FAngle=0   DAngle=0   CoupModType="Modified Darwin-Pecknold"
 
TABLE:  "MATERIAL PROPERTIES 03E - REBAR DATA"
   Material=A706   Fy=42184.1775683551   Fu=56245.5700911402   EffFy=46402.5953251907   EffFu=61870.1271002542   SSCurveOpt=Simple   SSHysType=Kinematic   SHard=0.011   SCap=0.11   FinalSlope=-0.1   UseCTDef=No   CoupModType="Von Mises"
 
TABLE:  "MATERIAL PROPERTIES 03F - TENDON DATA"
   Material=Tendon   Fy=172322.365366731   Fu=189828.799057598   SSCurveOpt="270 ksi"   SSHysType=Kinematic   FinalSlope=-0.1   CoupModType="Von Mises"
 
TABLE:  "MATERIAL PROPERTIES 03J - COUPLED NONLINEAR VON MISES DATA"
   Material=A706   YieldStress=46402.5953251907   LinIsoHard=No   LinKinHard=No   NLIsoSaHard=No
   Material=Steel   YieldStress=38668.8294376589   LinIsoHard=No   LinKinHard=No   NLIsoSaHard=No
   Material=Tendon   YieldStress=172322.365366731   LinIsoHard=No   LinKinHard=No   NLIsoSaHard=No
 
TABLE:  "MATERIAL PROPERTIES 06 - DAMPING PARAMETERS"
   Material=A706   ModalRatio=0   VisMass=0   VisStiff=0   HysMass=0   HysStiff=0
   Material=BTCT   ModalRatio=0   VisMass=0   VisStiff=0   HysMass=0   HysStiff=0
   Material=BTCTCOC   ModalRatio=0   VisMass=0   VisStiff=0   HysMass=0   HysStiff=0
   Material=Steel   ModalRatio=0   VisMass=0   VisStiff=0   HysMass=0   HysStiff=0
   Material=Tendon   ModalRatio=0   VisMass=0   VisStiff=0   HysMass=0   HysStiff=0
 
TABLE:  "MATERIAL PROPERTIES 09 - ACCEPTANCE CRITERIA"
   Material=A706   IOTens=0.01   LSTens=0.02   CPTens=0.05   IOComp=-0.005   LSComp=-0.01   CPComp=-0.02
   Material=BTCT   IOTens=0.01   LSTens=0.02   CPTens=0.05   IOComp=-0.003   LSComp=-0.006   CPComp=-0.015   IgnoreTens=Yes
   Material=BTCTCOC   IOTens=0.01   LSTens=0.02   CPTens=0.05   IOComp=-0.003   LSComp=-0.006   CPComp=-0.015   IgnoreTens=Yes
   Material=Steel   IOTens=0.01   LSTens=0.02   CPTens=0.05   IOComp=-0.005   LSComp=-0.01   CPComp=-0.02
   Material=Tendon   IOTens=0.015   LSTens=0.023   CPTens=0.03   IOComp=-0.015   LSComp=-0.023   CPComp=-0.03
 
TABLE:  "OPTIONS - COLORS - DISPLAY"
   DeviceType=Screen   Points=Blue   LinesFrame=Blue   LinesFrmDL=Blue   LinesCable=Green   LinesTendon=Green   SpringLinks=Green   Restraints=Green   Releases=Green   Axes=Cyan   Text=Black   ShadowLines=Gray8Dark   GuideLines=Gray8Dark _
        Highlight=Red   Selection=10504778   AreaFillBot=Red   AreaFillTop=16744703   AreaFillSd=Red   AreaEdge=DarkRed   SolidF1=Red   SolidF2=Blue   SolidF3=Green   SolidF4=Yellow   SolidF5=White   SolidF6=Cyan   SolidEdge=DarkRed _
        Floor=Gray4   Background=White   BGLowLeft=White   BGLowRight=White   BGUpRight=White   Darkness=0.5
   DeviceType=Printer   Points=Gray8Dark   LinesFrame=Black   LinesFrmDL=Gray4   LinesCable=Black   LinesTendon=Black   SpringLinks=Gray8Dark   Restraints=Gray8Dark   Releases=Gray4   Axes=Black   Text=Black   ShadowLines=Gray4 _
        GuideLines=Gray4   Highlight=Black   Selection=Black   AreaFillBot=Gray4   AreaFillTop=Gray8Dark   AreaFillSd=Gray4   AreaEdge=Black   SolidF1=Gray1Light   SolidF2=Gray2   SolidF3=Gray3   SolidF4=Gray4   SolidF5=Gray5 _
        SolidF6=Gray6   SolidEdge=Black   Floor=Gray4   Background=White   BGLowLeft=White   BGLowRight=White   BGUpRight=White   Darkness=0.5
   DeviceType="Color Printer"   Points=Blue   LinesFrame=Blue   LinesFrmDL=Blue   LinesCable=Green   LinesTendon=Green   SpringLinks=Green   Restraints=Green   Releases=Green   Axes=Cyan   Text=Black   ShadowLines=Gray8Dark _
        GuideLines=Gray8Dark   Highlight=Red   Selection=10504778   AreaFillBot=Red   AreaFillTop=16744703   AreaFillSd=Red   AreaEdge=DarkRed   SolidF1=Red   SolidF2=Blue   SolidF3=Green   SolidF4=Yellow   SolidF5=White   SolidF6=Cyan _
        SolidEdge=DarkRed   Floor=Gray4   Background=White   BGLowLeft=White   BGLowRight=White   BGUpRight=White   Darkness=0.5
 
TABLE:  "OPTIONS - COLORS - OUTPUT"
   DeviceType=Screen   Contour1=13107400   Contour2=6553828   Contour3=Red   Contour4=16639   Contour5=Orange   Contour6=43775   Contour7=54527   Contour8=Yellow   Contour9=65408   Contour10=Green   Contour11=8453888   Contour12=Cyan _
        Contour13=16755200   Contour14=16733440   Contour15=Blue   Transpare=0.5   Ratio1=Cyan   Ratio2=Green   Ratio3=Yellow   Ratio4=Orange   Ratio5=Red   RatioNotD=Gray4   RatioNotC=Red   RatioVal1=0.5   RatioVal2=0.7   RatioVal3=0.9 _
        RatioVal4=1   DFillPos=Blue   DFillNeg=Red   DFillRPos=Green   DFillRNeg=Green
   DeviceType=Printer   Contour1=Black   Contour2=3158064   Contour3=4210752   Contour4=5263440   Contour5=6316128   Contour6=7368816   Contour7=Gray8Dark   Contour8=Gray7   Contour9=Gray6   Contour10=Gray5   Contour11=Gray4 _
        Contour12=Gray3   Contour13=Gray2   Contour14=Gray1Light   Contour15=White   Transpare=0   Ratio1=Gray2   Ratio2=Gray4   Ratio3=Gray8Dark   Ratio4=4210752   Ratio5=Black   RatioNotD=Gray4   RatioNotC=Black   RatioVal1=0.5 _
        RatioVal2=0.7   RatioVal3=0.9   RatioVal4=1   DFillPos=Gray8Dark   DFillNeg=Gray8Dark   DFillRPos=4210752   DFillRNeg=4210752
   DeviceType="Color Printer"   Contour1=13107400   Contour2=6553828   Contour3=Red   Contour4=16639   Contour5=Orange   Contour6=43775   Contour7=54527   Contour8=Yellow   Contour9=65408   Contour10=Green   Contour11=8453888 _
        Contour12=Cyan   Contour13=16755200   Contour14=16733440   Contour15=Blue   Transpare=0   Ratio1=Cyan   Ratio2=Green   Ratio3=Yellow   Ratio4=Orange   Ratio5=Red   RatioNotD=Gray4   RatioNotC=Red   RatioVal1=0.5   RatioVal2=0.7 _
        RatioVal3=0.9   RatioVal4=1   DFillPos=Blue   DFillNeg=Red   DFillRPos=Green   DFillRNeg=Green
 
TABLE:  "OVERWRITES - CONCRETE DESIGN - CSA-A233-14"
   Frame=724799   DesignSect="Program Determined"   FrameType="Program Determined"   RLLF=0   XLMajor=0   XLMinor=0   XKMajor=0   XKMinor=0   CmMajor=0   CmMinor=0   DbMajor=0   DbMinor=0   DsMajor=0   DsMinor=0   Rd=0   Ro=0   MaxAggSize=0
   Frame=724800   DesignSect="Program Determined"   FrameType="Program Determined"   RLLF=0   XLMajor=0   XLMinor=0   XKMajor=0   XKMinor=0   CmMajor=0   CmMinor=0   DbMajor=0   DbMinor=0   DsMajor=0   DsMinor=0   Rd=0   Ro=0   MaxAggSize=0
   Frame=724801   DesignSect="Program Determined"   FrameType="Program Determined"   RLLF=0   XLMajor=0   XLMinor=0   XKMajor=0   XKMinor=0   CmMajor=0   CmMinor=0   DbMajor=0   DbMinor=0   DsMajor=0   DsMinor=0   Rd=0   Ro=0   MaxAggSize=0
   Frame=724802   DesignSect="Program Determined"   FrameType="Program Determined"   RLLF=0   XLMajor=0   XLMinor=0   XKMajor=0   XKMinor=0   CmMajor=0   CmMinor=0   DbMajor=0   DbMinor=0   DsMajor=0   DsMinor=0   Rd=0   Ro=0   MaxAggSize=0
   Frame=724803   DesignSect="Program Determined"   FrameType="Program Determined"   RLLF=0   XLMajor=0   XLMinor=0   XKMajor=0   XKMinor=0   CmMajor=0   CmMinor=0   DbMajor=0   DbMinor=0   DsMajor=0   DsMinor=0   Rd=0   Ro=0   MaxAggSize=0
   Frame=724804   DesignSect="Program Determined"   FrameType="Program Determined"   RLLF=0   XLMajor=0   XLMinor=0   XKMajor=0   XKMinor=0   CmMajor=0   CmMinor=0   DbMajor=0   DbMinor=0   DsMajor=0   DsMinor=0   Rd=0   Ro=0   MaxAggSize=0
   Frame=724805   DesignSect="Program Determined"   FrameType="Program Determined"   RLLF=0   XLMajor=0   XLMinor=0   XKMajor=0   XKMinor=0   CmMajor=0   CmMinor=0   DbMajor=0   DbMinor=0   DsMajor=0   DsMinor=0   Rd=0   Ro=0   MaxAggSize=0
   Frame=724806   DesignSect="Program Determined"   FrameType="Program Determined"   RLLF=0   XLMajor=0   XLMinor=0   XKMajor=0   XKMinor=0   CmMajor=0   CmMinor=0   DbMajor=0   DbMinor=0   DsMajor=0   DsMinor=0   Rd=0   Ro=0   MaxAggSize=0
   Frame=724807   DesignSect="Program Determined"   FrameType="Program Determined"   RLLF=0   XLMajor=0   XLMinor=0   XKMajor=0   XKMinor=0   CmMajor=0   CmMinor=0   DbMajor=0   DbMinor=0   DsMajor=0   DsMinor=0   Rd=0   Ro=0   MaxAggSize=0
   Frame=724808   DesignSect="Program Determined"   FrameType="Program Determined"   RLLF=0   XLMajor=0   XLMinor=0   XKMajor=0   XKMinor=0   CmMajor=0   CmMinor=0   DbMajor=0   DbMinor=0   DsMajor=0   DsMinor=0   Rd=0   Ro=0   MaxAggSize=0
   Frame=724809   DesignSect="Program Determined"   FrameType="Program Determined"   RLLF=0   XLMajor=0   XLMinor=0   XKMajor=0   XKMinor=0   CmMajor=0   CmMinor=0   DbMajor=0   DbMinor=0   DsMajor=0   DsMinor=0   Rd=0   Ro=0   MaxAggSize=0
   Frame=724810   DesignSect="Program Determined"   FrameType="Program Determined"   RLLF=0   XLMajor=0   XLMinor=0   XKMajor=0   XKMinor=0   CmMajor=0   CmMinor=0   DbMajor=0   DbMinor=0   DsMajor=0   DsMinor=0   Rd=0   Ro=0   MaxAggSize=0
   Frame=724811   DesignSect="Program Determined"   FrameType="Program Determined"   RLLF=0   XLMajor=0   XLMinor=0   XKMajor=0   XKMinor=0   CmMajor=0   CmMinor=0   DbMajor=0   DbMinor=0   DsMajor=0   DsMinor=0   Rd=0   Ro=0   MaxAggSize=0
   Frame=724812   DesignSect="Program Determined"   FrameType="Program Determined"   RLLF=0   XLMajor=0   XLMinor=0   XKMajor=0   XKMinor=0   CmMajor=0   CmMinor=0   DbMajor=0   DbMinor=0   DsMajor=0   DsMinor=0   Rd=0   Ro=0   MaxAggSize=0
   Frame=724813   DesignSect="Program Determined"   FrameType="Program Determined"   RLLF=0   XLMajor=0   XLMinor=0   XKMajor=0   XKMinor=0   CmMajor=0   CmMinor=0   DbMajor=0   DbMinor=0   DsMajor=0   DsMinor=0   Rd=0   Ro=0   MaxAggSize=0
   Frame=724814   DesignSect="Program Determined"   FrameType="Program Determined"   RLLF=0   XLMajor=0   XLMinor=0   XKMajor=0   XKMinor=0   CmMajor=0   CmMinor=0   DbMajor=0   DbMinor=0   DsMajor=0   DsMinor=0   Rd=0   Ro=0   MaxAggSize=0
   Frame=724815   DesignSect="Program Determined"   FrameType="Program Determined"   RLLF=0   XLMajor=0   XLMinor=0   XKMajor=0   XKMinor=0   CmMajor=0   CmMinor=0   DbMajor=0   DbMinor=0   DsMajor=0   DsMinor=0   Rd=0   Ro=0   MaxAggSize=0
   Frame=724816   DesignSect="Program Determined"   FrameType="Program Determined"   RLLF=0   XLMajor=0   XLMinor=0   XKMajor=0   XKMinor=0   CmMajor=0   CmMinor=0   DbMajor=0   DbMinor=0   DsMajor=0   DsMinor=0   Rd=0   Ro=0   MaxAggSize=0
   Frame=724817   DesignSect="Program Determined"   FrameType="Program Determined"   RLLF=0   XLMajor=0   XLMinor=0   XKMajor=0   XKMinor=0   CmMajor=0   CmMinor=0   DbMajor=0   DbMinor=0   DsMajor=0   DsMinor=0   Rd=0   Ro=0   MaxAggSize=0
   Frame=724818   DesignSect="Program Determined"   FrameType="Program Determined"   RLLF=0   XLMajor=0   XLMinor=0   XKMajor=0   XKMinor=0   CmMajor=0   CmMinor=0   DbMajor=0   DbMinor=0   DsMajor=0   DsMinor=0   Rd=0   Ro=0   MaxAggSize=0
# ... 60 like lines cut
 
TABLE:  "PREFERENCES - ALUMINUM DESIGN - AA 2015"
   THDesign=Envelopes   SRatioLimit=1   Provision=ASD   LatFact=1.33333333333333   UseLatFact=No   Bridge=No   OmegaTy=1.65   OmegaTr=1.95   OmegaC=1.65   OmegaBo=1.65   OmegaBr=1.95   OmegaVo=1.65   OmegaVr=1.95
 
TABLE:  "PREFERENCES - COLD FORMED DESIGN - AISI-ASD96"
   THDesign=Envelopes   FrameType="Braced Frame"   SRatioLimit=1   MaxIter=1   OmegaBS=1.67   OmegaBUS=1.67   OmegaBLTB=1.67   OmegaVS=1.67   OmegaVNS=1.5   OmegaT=1.67   OmegaC=1.8
 
TABLE:  "PREFERENCES - CONCRETE DESIGN - CSA-A233-14"
   THDesign=Envelopes   NumCurves=24   NumPoints=11   MinEccen=Yes   BCCDesign=Yes   CTorsion=Yes   PatLLF=0.75   UFLimit=0.95   PhiS=0.85   PhiC=0.65
 
TABLE:  "PREFERENCES - CONCRETE SHELL DESIGN - EUROCODE 2-2004"
   Country="CEN Default"   GammaS=1.15   GammaC=1.5   AlphaCC=1
 
TABLE:  "PREFERENCES - DIMENSIONAL"
   MergeTol=0.001   FineGrid=0.25   Nudge=0.25   SelectTol=3   SnapTol=12   SLineThick=1   PLineThick=4   MaxFont=8   MinFont=3   AutoZoom=10   ShrinkFact=70   TextFileLen=240
 
TABLE:  "PREFERENCES - STEEL DESIGN - AISC 360-10"
   THDesign=Envelopes   FrameType=SMF   PatLLF=0.75   SRatioLimit=0.95   MaxIter=1   SDC=D   SeisCode=No   SeisLoad=No   ImpFactor=1   SystemRho=1   SystemSds=0.5   SystemR=8   SystemCd=5.5   Omega0=3   Provision=LRFD _
        AMethod="Direct Analysis"   SOMethod="General 2nd Order"   SRMethod="Tau-b Fixed"   NLCoeff=0.002   PhiB=0.9   PhiC=0.9   PhiTY=0.9   PhiTF=0.75   PhiV=0.9   PhiVRolledI=1   PhiVT=0.9   PlugWeld=Yes   HSSWelding=ERW   HSSReduceT=No _
        CheckDefl=No   DLRat=120   SDLAndLLRat=120   LLRat=360   TotalRat=240   NetRat=240
 
TABLE:  "PROGRAM CONTROL"
   ProgramName=SAP2000   Version=24.0.0   CurrUnits="Tonf, m, C"   SteelCode="AISC 360-10"   ConcCode="CSA A23.3-14"   AlumCode="AA 2015"   ColdCode=AISI-ASD96   RegenHinge=Yes
 
TABLE:  "PROJECT INFORMATION"
   Item="Company Name"   Data=po
   Item="Client Name"
   Item="Project Name"
   Item="Project Number"
   Item="Model Name"
   Item="Model Description"
   Item="Revision Number"
   Item="Frame Type"
   Item=Engineer
   Item=Checker
   Item=Supervisor
   Item="Issue Code"
   Item="Design Code"
 
TABLE:  "REBAR SIZES"
   RebarID=#2   Area=3.2258E-05   Diameter=0.00635
   RebarID=#3   Area=7.09675996154547E-05   Diameter=0.009525
   RebarID=#4   Area=0.000129032001922727   Diameter=0.0127
   RebarID=#5   Area=0.000199999601538181   Diameter=0.015875
   RebarID=#6   Area=0.000283870398461819   Diameter=0.01905
   RebarID=#7   Area=0.000387096015381813   Diameter=0.022225
   RebarID=#8   Area=0.000509676413843632   Diameter=0.0254
   RebarID=#9   Area=0.00064516   Diameter=0.0286512005329132
   RebarID=#10   Area=0.00081935318769455   Diameter=0.0322579995155334
   RebarID=#11   Area=0.00100644956308365   Diameter=0.0358139991521835
   RebarID=#14   Area=0.00145161   Diameter=0.0430021989583969
   RebarID=#18   Area=0.00258064   Diameter=0.0573277992248535
   RebarID=10M   Area=0.000100000004162606   Diameter=0.0113000003604438
   RebarID=15M   Area=0.000200000008325212   Diameter=0.0160000002402959
   RebarID=20M   Area=0.000300000012487818   Diameter=0.0195000002928606
   RebarID=25M   Area=0.000500000020813031   Diameter=0.0252000011414055
   RebarID=30M   Area=0.000700000029138243   Diameter=0.0299000000675832
   RebarID=35M   Area=0.00100000004162606   Diameter=0.0357000012990997
   RebarID=45M   Area=0.00150000006243909   Diameter=0.0437000014192476
   RebarID=55M   Area=0.00250000010406515   Diameter=0.056400002372922
   RebarID=6d   Area=2.83000004150781E-05   Diameter=0.00600000009011096
   RebarID=8d   Area=5.03000013308514E-05   Diameter=0.00800000012014795
   RebarID=10d   Area=7.85000032676458E-05   Diameter=0.0100000001501849
   RebarID=12d   Area=0.000113000004703745   Diameter=0.0120000001802219
   RebarID=14d   Area=0.000154000006410413   Diameter=0.0140000002102589
   RebarID=16d   Area=0.000201000008366838   Diameter=0.0160000002402959
   RebarID=20d   Area=0.000314000013070583   Diameter=0.0200000003003699
   RebarID=25d   Area=0.000491000020438396   Diameter=0.0250000003754623
   RebarID=26d   Area=0.000531000022103439   Diameter=0.0260000003904808
   RebarID=28d   Area=0.000616000025641654   Diameter=0.0280000004205178
   RebarID=N12   Area=0.000113000004703745   Diameter=0.0120000001802219
   RebarID=N16   Area=0.000201000008366838   Diameter=0.0160000002402959
   RebarID=N20   Area=0.000314000013070583   Diameter=0.0200000003003699
   RebarID=N24   Area=0.00045200001881498   Diameter=0.0240000003604438
   RebarID=N28   Area=0.000616000025641654   Diameter=0.0280000004205178
   RebarID=N32   Area=0.000804000033467353   Diameter=0.0320000004805918
   RebarID=N36   Area=0.00102000004245858   Diameter=0.0360000005406658
 
TABLE:  "SOLID PROPERTY DEFINITIONS"
   SolidProp=Solid1   Material=BTCT   MatAngleA=0   MatAngleB=0   MatAngleC=0   InComp=Yes   Color=Gray8Dark
 
END TABLE DATA
