File D:\ResearchLab\02_Projects\02_Projects\Tap chi XD_SFOA\code\SOO_MPJ\MPJ_Sap\SOO_Cost_W07\MPJ_7.$2k was saved on m/d/yy at h:mm:ss
 
TABLE:  "ACTIVE DEGREES OF FREEDOM"
   UX=Yes   UY=Yes   UZ=Yes   RX=Yes   RY=Yes   RZ=Yes
 
TABLE:  "ANALYSIS OPTIONS"
   Solver=Advanced   SolverProc=Auto   Force32Bit=No   StiffCase=None   GeomMod=None   HingeOpt="In Elements"   NumAThreads=0   MaxFileSize=0   NumDThreads=0   NumRThreads=0   UseMMFiles="Program Determined"   AllowDiff=No
 
TABLE:  "AREA AUTO MESH ASSIGNMENTS"
   Area=17126   MeshType="Number of Elements"   MeshGroup=ALL   Number1=3   Number2=3   LocalEdge=No   LocalFace=No   SuppEdge=No   SuppFace=No   SubMesh=No
   Area=17127   MeshType="Number of Elements"   MeshGroup=ALL   Number1=3   Number2=3   LocalEdge=No   LocalFace=No   SuppEdge=No   SuppFace=No   SubMesh=No
   Area=17128   MeshType="Number of Elements"   MeshGroup=ALL   Number1=3   Number2=3   LocalEdge=No   LocalFace=No   SuppEdge=No   SuppFace=No   SubMesh=No
   Area=17129   MeshType="Number of Elements"   MeshGroup=ALL   Number1=3   Number2=3   LocalEdge=No   LocalFace=No   SuppEdge=No   SuppFace=No   SubMesh=No
   Area=17130   MeshType="Number of Elements"   MeshGroup=ALL   Number1=3   Number2=3   LocalEdge=No   LocalFace=No   SuppEdge=No   SuppFace=No   SubMesh=No
   Area=17131   MeshType="Number of Elements"   MeshGroup=ALL   Number1=3   Number2=3   LocalEdge=No   LocalFace=No   SuppEdge=No   SuppFace=No   SubMesh=No
   Area=17132   MeshType="Number of Elements"   MeshGroup=ALL   Number1=3   Number2=3   LocalEdge=No   LocalFace=No   SuppEdge=No   SuppFace=No   SubMesh=No
   Area=17133   MeshType="Number of Elements"   MeshGroup=ALL   Number1=3   Number2=3   LocalEdge=No   LocalFace=No   SuppEdge=No   SuppFace=No   SubMesh=No
   Area=17134   MeshType="Number of Elements"   MeshGroup=ALL   Number1=3   Number2=3   LocalEdge=No   LocalFace=No   SuppEdge=No   SuppFace=No   SubMesh=No
   Area=17135   MeshType="Number of Elements"   MeshGroup=ALL   Number1=3   Number2=3   LocalEdge=No   LocalFace=No   SuppEdge=No   SuppFace=No   SubMesh=No
   Area=17136   MeshType="Number of Elements"   MeshGroup=ALL   Number1=3   Number2=3   LocalEdge=No   LocalFace=No   SuppEdge=No   SuppFace=No   SubMesh=No
   Area=17137   MeshType="Number of Elements"   MeshGroup=ALL   Number1=3   Number2=3   LocalEdge=No   LocalFace=No   SuppEdge=No   SuppFace=No   SubMesh=No
   Area=17138   MeshType="Number of Elements"   MeshGroup=ALL   Number1=3   Number2=3   LocalEdge=No   LocalFace=No   SuppEdge=No   SuppFace=No   SubMesh=No
   Area=17139   MeshType="Number of Elements"   MeshGroup=ALL   Number1=3   Number2=3   LocalEdge=No   LocalFace=No   SuppEdge=No   SuppFace=No   SubMesh=No
   Area=17140   MeshType="Number of Elements"   MeshGroup=ALL   Number1=3   Number2=3   LocalEdge=No   LocalFace=No   SuppEdge=No   SuppFace=No   SubMesh=No
   Area=17141   MeshType="Number of Elements"   MeshGroup=ALL   Number1=3   Number2=3   LocalEdge=No   LocalFace=No   SuppEdge=No   SuppFace=No   SubMesh=No
   Area=17142   MeshType="Number of Elements"   MeshGroup=ALL   Number1=3   Number2=3   LocalEdge=No   LocalFace=No   SuppEdge=No   SuppFace=No   SubMesh=No
   Area=17143   MeshType="Number of Elements"   MeshGroup=ALL   Number1=3   Number2=3   LocalEdge=No   LocalFace=No   SuppEdge=No   SuppFace=No   SubMesh=No
   Area=17144   MeshType="Number of Elements"   MeshGroup=ALL   Number1=3   Number2=3   LocalEdge=No   LocalFace=No   SuppEdge=No   SuppFace=No   SubMesh=No
   Area=17145   MeshType="Number of Elements"   MeshGroup=ALL   Number1=3   Number2=3   LocalEdge=No   LocalFace=No   SuppEdge=No   SuppFace=No   SubMesh=No
   Area=17146   MeshType="Number of Elements"   MeshGroup=ALL   Number1=3   Number2=3   LocalEdge=No   LocalFace=No   SuppEdge=No   SuppFace=No   SubMesh=No
 
TABLE:  "AREA LOADS - UNIFORM"
   Area=17126   LoadPat=LL   CoordSys=GLOBAL   Dir=Gravity   UnifLoad=1.00034158457019
   Area=17127   LoadPat=LL   CoordSys=GLOBAL   Dir=Gravity   UnifLoad=1.00034158457019
   Area=17128   LoadPat=LL   CoordSys=GLOBAL   Dir=Gravity   UnifLoad=1.00034158457019
   Area=17129   LoadPat=LL   CoordSys=GLOBAL   Dir=Gravity   UnifLoad=1.00034158457019
   Area=17130   LoadPat=LL   CoordSys=GLOBAL   Dir=Gravity   UnifLoad=1.00034158457019
   Area=17131   LoadPat=LL   CoordSys=GLOBAL   Dir=Gravity   UnifLoad=1.00034158457019
   Area=17132   LoadPat=LL   CoordSys=GLOBAL   Dir=Gravity   UnifLoad=1.00034158457019
   Area=17133   LoadPat=LL   CoordSys=GLOBAL   Dir=Gravity   UnifLoad=1.00034158457019
   Area=17134   LoadPat=LL   CoordSys=GLOBAL   Dir=Gravity   UnifLoad=1.00034158457019
   Area=17135   LoadPat=LL   CoordSys=GLOBAL   Dir=Gravity   UnifLoad=1.00034158457019
   Area=17136   LoadPat=LL   CoordSys=GLOBAL   Dir=Gravity   UnifLoad=1.00034158457019
   Area=17137   LoadPat=LL   CoordSys=GLOBAL   Dir=Gravity   UnifLoad=1.00034158457019
   Area=17138   LoadPat=LL   CoordSys=GLOBAL   Dir=Gravity   UnifLoad=1.00034158457019
   Area=17139   LoadPat=LL   CoordSys=GLOBAL   Dir=Gravity   UnifLoad=1.00034158457019
   Area=17140   LoadPat=LL   CoordSys=GLOBAL   Dir=Gravity   UnifLoad=1.00034158457019
   Area=17141   LoadPat=LL   CoordSys=GLOBAL   Dir=Gravity   UnifLoad=1.00034158457019
   Area=17142   LoadPat=LL   CoordSys=GLOBAL   Dir=Gravity   UnifLoad=1.00034158457019
   Area=17143   LoadPat=LL   CoordSys=GLOBAL   Dir=Gravity   UnifLoad=1.00034158457019
   Area=17144   LoadPat=LL   CoordSys=GLOBAL   Dir=Gravity   UnifLoad=1.00034158457019
   Area=17145   LoadPat=LL   CoordSys=GLOBAL   Dir=Gravity   UnifLoad=1.00034158457019
   Area=17146   LoadPat=LL   CoordSys=GLOBAL   Dir=Gravity   UnifLoad=1.00034158457019
 
TABLE:  "AREA SECTION ASSIGNMENTS"
   Area=17126   Section=Deck   MatProp=Default
   Area=17127   Section=Deck   MatProp=Default
   Area=17128   Section=Deck   MatProp=Default
   Area=17129   Section=Deck   MatProp=Default
   Area=17130   Section=Deck   MatProp=Default
   Area=17131   Section=Deck   MatProp=Default
   Area=17132   Section=Deck   MatProp=Default
   Area=17133   Section=Deck   MatProp=Default
   Area=17134   Section=Deck   MatProp=Default
   Area=17135   Section=Deck   MatProp=Default
   Area=17136   Section=Deck   MatProp=Default
   Area=17137   Section=Deck   MatProp=Default
   Area=17138   Section=Deck   MatProp=Default
   Area=17139   Section=Deck   MatProp=Default
   Area=17140   Section=Deck   MatProp=Default
   Area=17141   Section=Deck   MatProp=Default
   Area=17142   Section=Deck   MatProp=Default
   Area=17143   Section=Deck   MatProp=Default
   Area=17144   Section=Deck   MatProp=Default
   Area=17145   Section=Deck   MatProp=Default
   Area=17146   Section=Deck   MatProp=Default
 
TABLE:  "AREA SECTION PROPERTIES"
   Section=Deck   Material=BTCT   MatAngle=0   AreaType=Shell   Type=Shell-Thin   DrillDOF=Yes   Thickness=0.3   BendThick=0.3   Color=Green   F11Mod=1   F22Mod=1   F12Mod=1   M11Mod=1   M22Mod=1   M12Mod=1   V13Mod=1   V23Mod=1   MMod=1 _
        WMod=1   Notes="Added 24-Feb-23 16:56:47"
 
TABLE:  "AREA SECTION PROPERTY DESIGN PARAMETERS"
   Section=Deck   RebarMat=None   RebarOpt=Default
 
TABLE:  "AREA SECTION PROPERTY - TIME DEPENDENT"
   Section=Deck   TypeSize=User   AutoSFSize=1   UserValSize=0.1
 
TABLE:  "AUTO COMBINATION OPTION DATA 01 - GENERAL"
   DesignType=Concrete   AutoGen=Yes
 
TABLE:  "AUTO COMBINATION OPTION DATA 02 - USER DATA"
   DesignType=Concrete   LSType=Strength   LCName=DEAD
   DesignType=Concrete   LSType=Strength   LCName=LL
 
TABLE:  "AUTO WAVE 3 - WAVE CHARACTERISTICS - GENERAL"
   WaveChar=Default   WaveType="From Theory"   KinFactor=1   SWaterDepth=45   WaveHeight=18   WavePeriod=12   WaveTheory=Linear
 
TABLE:  "CASE - MODAL 1 - GENERAL"
   Case=MODAL   ModeType=Eigen   MaxNumModes=12   MinNumModes=1   EigenShift=0   EigenCutoff=0   EigenTol=1E-09   AutoShift=Yes
 
TABLE:  "CASE - STATIC 1 - LOAD ASSIGNMENTS"
   Case=DEAD   LoadType="Load pattern"   LoadName=DEAD   LoadSF=1
   Case=LL   LoadType="Load pattern"   LoadName=LL   LoadSF=1
 
TABLE:  "COMBINATION DEFINITIONS"
   ComboName=COMB1   ComboType="Linear Add"   AutoDesign=No   CaseName=DEAD   ScaleFactor=1   SteelDesign=None   ConcDesign=Strength   AlumDesign=None   ColdDesign=None
   ComboName=COMB2   ComboType="Linear Add"   AutoDesign=No   CaseName=DEAD   ScaleFactor=1   SteelDesign=None   ConcDesign=Strength   AlumDesign=None   ColdDesign=None
   ComboName=COMB2   CaseName=LL   ScaleFactor=1
   ComboName=BAO   ComboType=Envelope   AutoDesign=No   CaseName=COMB1   ScaleFactor=1   SteelDesign=None   ConcDesign=Strength   AlumDesign=None   ColdDesign=None
   ComboName=BAO   CaseName=COMB2   ScaleFactor=1
   ComboName=DCON1   ComboType="Linear Add"   AutoDesign=Yes   CaseName=DEAD   ScaleFactor=1.4   SteelDesign=None   ConcDesign=Strength   AlumDesign=None   ColdDesign=None   GUID=bb4fff9a-98b5-44d1-9fde-34d92700a8e9   Notes="Dead Only; Strength"
   ComboName=DCON2   ComboType="Linear Add"   AutoDesign=Yes   CaseName=DEAD   ScaleFactor=1.25   SteelDesign=None   ConcDesign=Strength   AlumDesign=None   ColdDesign=None   GUID=505bcda7-6fac-4dd0-b03e-c591d1ffc6ce   Notes="Dead + Live; Strength"
   ComboName=DCON2   CaseName=LL   ScaleFactor=1.5
 
TABLE:  "CONNECTIVITY - AREA"
   Area=17126   Joint1=50280   Joint2=50246   Joint3=50223   Joint4=50222   GUID=d6d6dc35-0f2e-4f18-9afe-7fc11e1b4568
   Area=17127   Joint1=50222   Joint2=50223   Joint3=50225   Joint4=50224   GUID=9f19e867-4952-4d04-8a76-ee5b4b085c1d
   Area=17128   Joint1=50224   Joint2=50225   Joint3=50227   Joint4=50226   GUID=6e3f0f5d-8f23-47ba-b8fb-77395f15b230
   Area=17129   Joint1=50226   Joint2=50227   Joint3=50229   Joint4=50228   GUID=c076f9fb-07f1-41d8-a5ab-b83eab5caac5
   Area=17130   Joint1=50228   Joint2=50229   Joint3=50231   Joint4=50230   GUID=1b08e695-edac-412a-a7db-514ffdf593e4
   Area=17131   Joint1=50230   Joint2=50231   Joint3=50233   Joint4=50232   GUID=cd99a911-67ce-4b33-b35b-ba93f355bf0f
   Area=17132   Joint1=50232   Joint2=50233   Joint3=50248   Joint4=50281   GUID=47d94ab1-61c7-4f5b-b0b8-b0ab69fe334c
   Area=17133   Joint1=50246   Joint2=50247   Joint3=50234   Joint4=50223   GUID=614da4f3-c6c6-4201-b5b8-cdd5263c942b
   Area=17134   Joint1=50223   Joint2=50234   Joint3=50235   Joint4=50225   GUID=c2de17e1-0c91-43f6-a51f-d4d2b58fc6b5
   Area=17135   Joint1=50225   Joint2=50235   Joint3=50236   Joint4=50227   GUID=ed2a3f0d-16c2-4f75-83a5-fb6abfea38a1
   Area=17136   Joint1=50227   Joint2=50236   Joint3=50237   Joint4=50229   GUID=a39521c9-e0c8-4f93-af63-06d248539d06
   Area=17137   Joint1=50229   Joint2=50237   Joint3=50238   Joint4=50231   GUID=772959f3-a42b-4ac3-ab23-81cdbea4a040
   Area=17138   Joint1=50231   Joint2=50238   Joint3=50239   Joint4=50233   GUID=9f5c8b68-2de1-4671-8436-fa5e88a87302
   Area=17139   Joint1=50233   Joint2=50239   Joint3=50249   Joint4=50248   GUID=443c3f59-bb2f-44ff-b664-413b3ee71433
   Area=17140   Joint1=50247   Joint2=50282   Joint3=50240   Joint4=50234   GUID=1717a41c-ee4d-4743-86a6-6456026cea18
   Area=17141   Joint1=50234   Joint2=50240   Joint3=50241   Joint4=50235   GUID=84fe5ae5-440f-462b-9f72-e45f23ee8fbb
   Area=17142   Joint1=50235   Joint2=50241   Joint3=50242   Joint4=50236   GUID=32281c62-6c0f-41af-ad71-63008b7c9adc
   Area=17143   Joint1=50236   Joint2=50242   Joint3=50243   Joint4=50237   GUID=c5de3cb0-0163-40f7-891f-9b6230051e8d
   Area=17144   Joint1=50237   Joint2=50243   Joint3=50244   Joint4=50238   GUID=d05f9f33-1874-40c0-ae50-088a38e44e2f
   Area=17145   Joint1=50238   Joint2=50244   Joint3=50245   Joint4=50239   GUID=04b5e0d7-c7a7-4387-8fb1-0d68253b5b5e
   Area=17146   Joint1=50239   Joint2=50245   Joint3=50283   Joint4=50249   GUID=1e17c8ac-e9d6-47b5-bae5-b217fd2577e9
 
TABLE:  "CONNECTIVITY - FRAME"
   Frame=54748   JointI=50222   JointJ=50223   IsCurved=No   GUID=45ae7b3b-13f7-4c08-9e5f-1c7d09c5a49c
   Frame=54749   JointI=50224   JointJ=50225   IsCurved=No   GUID=72b02f30-6a47-409f-addc-ae68f757549b
   Frame=54750   JointI=50226   JointJ=50227   IsCurved=No   GUID=68b8adb0-8858-4719-ab3f-29bd03e75dfa
   Frame=54751   JointI=50228   JointJ=50229   IsCurved=No   GUID=6f4fe586-7ca5-427b-aff7-0c04401ace62
   Frame=54752   JointI=50230   JointJ=50231   IsCurved=No   GUID=156ca381-2000-4f69-85b0-e04d5d4399e8
   Frame=54753   JointI=50232   JointJ=50233   IsCurved=No   GUID=d403dfd4-0b7f-4e2a-a463-24a62cd64a7b
   Frame=54754   JointI=50223   JointJ=50234   IsCurved=No   GUID=ae7606f6-e945-480c-8869-6a1cab5b9708
   Frame=54755   JointI=50225   JointJ=50235   IsCurved=No   GUID=16cc6c1f-c102-431d-9ca7-107f74f64763
   Frame=54756   JointI=50227   JointJ=50236   IsCurved=No   GUID=b66e03e9-69ff-4eaa-8f30-73d462ab7398
   Frame=54757   JointI=50229   JointJ=50237   IsCurved=No   GUID=14485e69-5110-42b7-bea0-40d63a149b70
   Frame=54758   JointI=50231   JointJ=50238   IsCurved=No   GUID=1e5bcec2-2dc4-4671-98f8-46f7d1fcf38f
   Frame=54759   JointI=50233   JointJ=50239   IsCurved=No   GUID=77a629e2-e081-4a92-b5e1-5e52dc83b5c1
   Frame=54760   JointI=50234   JointJ=50240   IsCurved=No   GUID=4e856791-d81c-4d6e-980b-cd0ff5a73247
   Frame=54761   JointI=50235   JointJ=50241   IsCurved=No   GUID=00fd7a5b-dbf2-4e57-a651-4fcccb84bda4
   Frame=54762   JointI=50236   JointJ=50242   IsCurved=No   GUID=2966e72f-59f2-46da-85bd-e0ec874e08e3
   Frame=54763   JointI=50237   JointJ=50243   IsCurved=No   GUID=9b833887-8395-4c10-8555-319775008c1f
   Frame=54764   JointI=50238   JointJ=50244   IsCurved=No   GUID=41d1babb-cc88-4882-b546-a4e58a356fb2
   Frame=54765   JointI=50239   JointJ=50245   IsCurved=No   GUID=3c223908-f2f2-4477-b335-b885317d7bab
   Frame=54766   JointI=50246   JointJ=50223   IsCurved=No   GUID=d83d686e-010e-406e-ad99-44806717843c
   Frame=54767   JointI=50247   JointJ=50234   IsCurved=No   GUID=5f5e7922-741f-4c6e-b69e-131e79228548
   Frame=54768   JointI=50223   JointJ=50225   IsCurved=No   GUID=0db551dc-6b26-46d4-a6ba-2a2407ebc662
   Frame=54769   JointI=50234   JointJ=50235   IsCurved=No   GUID=0533732e-7b8b-472f-828b-cb5ee9e23be9
   Frame=54770   JointI=50225   JointJ=50227   IsCurved=No   GUID=5087f827-4eae-4120-bf0a-e2e08945d9f0
   Frame=54771   JointI=50235   JointJ=50236   IsCurved=No   GUID=a3e08157-124d-45f6-99b3-bce98e477e7d
   Frame=54772   JointI=50227   JointJ=50229   IsCurved=No   GUID=5c86c4e2-1874-4efb-905b-494216006fc7
   Frame=54773   JointI=50236   JointJ=50237   IsCurved=No   GUID=8d4d9f0c-3d71-4384-a884-11fcee9a3cce
   Frame=54774   JointI=50229   JointJ=50231   IsCurved=No   GUID=0f972108-aa7a-4afd-b354-4a01da756b79
   Frame=54775   JointI=50237   JointJ=50238   IsCurved=No   GUID=f50f2550-2e52-4d65-9c31-5cdfd51488e7
   Frame=54776   JointI=50231   JointJ=50233   IsCurved=No   GUID=f54bda25-c2b3-4096-899d-31d2509d4703
   Frame=54777   JointI=50238   JointJ=50239   IsCurved=No   GUID=1cbbe145-ae69-4b08-ae90-05c77ad8b54e
   Frame=54778   JointI=50233   JointJ=50248   IsCurved=No   GUID=c5e13d6d-6f62-4b08-b827-fda472ada16e
   Frame=54779   JointI=50239   JointJ=50249   IsCurved=No   GUID=bb371f06-6f03-4733-9066-46431ea4815d
   Frame=54780   JointI=50223   JointJ=50250   IsCurved=No   GUID=fe701c2b-d75d-4bdd-8deb-db32775e77cb
   Frame=54781   JointI=50250   JointJ=50251   IsCurved=No   GUID=662a8965-ac1a-4e7e-ad85-5347ae7a2c80
   Frame=54782   JointI=50251   JointJ=50252   IsCurved=No   GUID=3c0b14aa-7a64-4525-9af3-fec073cc5b53
   Frame=54783   JointI=50225   JointJ=50253   IsCurved=No   GUID=62f2a028-4076-410a-b51a-5072da8b82e0
   Frame=54784   JointI=50253   JointJ=50254   IsCurved=No   GUID=498515a0-a922-49b9-911c-b8110d228ac5
   Frame=54785   JointI=50254   JointJ=50255   IsCurved=No   GUID=d87c4439-556d-4af8-bfd5-5e03141ecb58
   Frame=54786   JointI=50227   JointJ=50256   IsCurved=No   GUID=28ebb9c6-a96f-443b-9c7e-a6b8aa6e3775
   Frame=54787   JointI=50256   JointJ=50257   IsCurved=No   GUID=d8de0b41-d686-4084-8b1e-10c2804caf84
   Frame=54788   JointI=50257   JointJ=50258   IsCurved=No   GUID=7360ecbf-547b-4119-870d-2cdf903d6d94
   Frame=54789   JointI=50229   JointJ=50259   IsCurved=No   GUID=55c15b41-d8f8-44f2-b3f4-449a193af63e
   Frame=54790   JointI=50259   JointJ=50260   IsCurved=No   GUID=d399a3e5-d14e-4d65-b33c-a0dd19f9eaca
   Frame=54791   JointI=50260   JointJ=50261   IsCurved=No   GUID=0595ee26-1039-40f6-855f-5f3eff809b98
   Frame=54792   JointI=50231   JointJ=50262   IsCurved=No   GUID=d695b2bb-9d5c-49e6-9122-0556c6adf043
   Frame=54793   JointI=50262   JointJ=50263   IsCurved=No   GUID=486291b6-963b-4196-8144-eb0790fa931d
   Frame=54794   JointI=50263   JointJ=50264   IsCurved=No   GUID=bc6eaa17-b085-4b10-9147-3f0615a5647f
   Frame=54795   JointI=50233   JointJ=50265   IsCurved=No   GUID=ba0461d1-045b-4a77-95ff-0a935108a890
   Frame=54796   JointI=50265   JointJ=50266   IsCurved=No   GUID=fd1c0a0d-432b-4310-a538-52020fa3389a
   Frame=54797   JointI=50266   JointJ=50267   IsCurved=No   GUID=509e8b19-05dc-445f-906b-02356d03e743
   Frame=54798   JointI=50234   JointJ=50268   IsCurved=No   GUID=9577483f-8d6a-46b4-96f0-31e2d6d98065
   Frame=54799   JointI=50268   JointJ=50269   IsCurved=No   GUID=96868293-4898-4b01-9763-3a1a00020d50
   Frame=54800   JointI=50235   JointJ=50270   IsCurved=No   GUID=a24f76bc-49bf-43b9-9963-a4796a66c12e
   Frame=54801   JointI=50270   JointJ=50271   IsCurved=No   GUID=35b8650e-0ef7-4d24-a8f9-b62a5e3a7d6e
   Frame=54802   JointI=50236   JointJ=50272   IsCurved=No   GUID=b7b04822-74e3-49bf-b8cc-dd85dc4a2266
   Frame=54803   JointI=50272   JointJ=50273   IsCurved=No   GUID=504f106b-63bf-4158-bc1e-425d7eb74e19
   Frame=54804   JointI=50237   JointJ=50274   IsCurved=No   GUID=d6e62e26-8141-466a-97fc-382c02fe8a03
   Frame=54805   JointI=50274   JointJ=50275   IsCurved=No   GUID=aaba50cb-b2d7-4c9c-9632-cb0729f8284d
   Frame=54806   JointI=50238   JointJ=50276   IsCurved=No   GUID=e721b572-2be7-46c3-bcbb-1061c36b0f0d
   Frame=54807   JointI=50276   JointJ=50277   IsCurved=No   GUID=d2726bc1-0bb5-4878-8c2d-b885dd51382a
   Frame=54808   JointI=50239   JointJ=50278   IsCurved=No   GUID=55c767fc-13fc-4ed6-b3c0-cd00f99e5225
   Frame=54809   JointI=50278   JointJ=50279   IsCurved=No   GUID=99d120aa-8c5a-45bc-af28-2f0767e8d9d1
   Frame=54810   JointI=50250   JointJ=50253   IsCurved=No   GUID=f6740038-41d1-4f0b-bf9f-4617cc8048ba
   Frame=54811   JointI=50253   JointJ=50256   IsCurved=No   GUID=0da6b8e5-0fd0-4003-bab7-d5d95143c9bb
   Frame=54812   JointI=50256   JointJ=50259   IsCurved=No   GUID=3f0802c9-3df5-4441-ba97-4e8c971f3842
   Frame=54813   JointI=50259   JointJ=50262   IsCurved=No   GUID=e237cda8-dc32-4282-88bf-bd703da3f0b3
   Frame=54814   JointI=50262   JointJ=50265   IsCurved=No   GUID=63ac5270-88bc-4840-8228-f1634b7606fb
 
TABLE:  "COORDINATE SYSTEMS"
   Name=GLOBAL   Type=Cartesian   X=0   Y=0   Z=0   AboutZ=0   AboutY=0   AboutX=0
 
TABLE:  "DATABASE DOCUMENTATION"
 
TABLE:  "DATABASE FORMAT TYPES"
   UnitsCurr=Yes   OverrideE=No
 
TABLE:  "FRAME AUTO MESH ASSIGNMENTS"
   Frame=54748   AutoMesh=Yes   AtJoints=Yes   AtFrames=No   NumSegments=0   MaxLength=0   MaxDegrees=0
   Frame=54749   AutoMesh=Yes   AtJoints=Yes   AtFrames=No   NumSegments=0   MaxLength=0   MaxDegrees=0
   Frame=54750   AutoMesh=Yes   AtJoints=Yes   AtFrames=No   NumSegments=0   MaxLength=0   MaxDegrees=0
   Frame=54751   AutoMesh=Yes   AtJoints=Yes   AtFrames=No   NumSegments=0   MaxLength=0   MaxDegrees=0
   Frame=54752   AutoMesh=Yes   AtJoints=Yes   AtFrames=No   NumSegments=0   MaxLength=0   MaxDegrees=0
   Frame=54753   AutoMesh=Yes   AtJoints=Yes   AtFrames=No   NumSegments=0   MaxLength=0   MaxDegrees=0
   Frame=54754   AutoMesh=Yes   AtJoints=Yes   AtFrames=No   NumSegments=0   MaxLength=0   MaxDegrees=0
   Frame=54755   AutoMesh=Yes   AtJoints=Yes   AtFrames=No   NumSegments=0   MaxLength=0   MaxDegrees=0
   Frame=54756   AutoMesh=Yes   AtJoints=Yes   AtFrames=No   NumSegments=0   MaxLength=0   MaxDegrees=0
   Frame=54757   AutoMesh=Yes   AtJoints=Yes   AtFrames=No   NumSegments=0   MaxLength=0   MaxDegrees=0
   Frame=54758   AutoMesh=Yes   AtJoints=Yes   AtFrames=No   NumSegments=0   MaxLength=0   MaxDegrees=0
   Frame=54759   AutoMesh=Yes   AtJoints=Yes   AtFrames=No   NumSegments=0   MaxLength=0   MaxDegrees=0
   Frame=54760   AutoMesh=Yes   AtJoints=Yes   AtFrames=No   NumSegments=0   MaxLength=0   MaxDegrees=0
   Frame=54761   AutoMesh=Yes   AtJoints=Yes   AtFrames=No   NumSegments=0   MaxLength=0   MaxDegrees=0
   Frame=54762   AutoMesh=Yes   AtJoints=Yes   AtFrames=No   NumSegments=0   MaxLength=0   MaxDegrees=0
   Frame=54763   AutoMesh=Yes   AtJoints=Yes   AtFrames=No   NumSegments=0   MaxLength=0   MaxDegrees=0
   Frame=54764   AutoMesh=Yes   AtJoints=Yes   AtFrames=No   NumSegments=0   MaxLength=0   MaxDegrees=0
   Frame=54765   AutoMesh=Yes   AtJoints=Yes   AtFrames=No   NumSegments=0   MaxLength=0   MaxDegrees=0
   Frame=54766   AutoMesh=Yes   AtJoints=Yes   AtFrames=No   NumSegments=0   MaxLength=0   MaxDegrees=0
   Frame=54767   AutoMesh=Yes   AtJoints=Yes   AtFrames=No   NumSegments=0   MaxLength=0   MaxDegrees=0
# ... 47 like lines cut
 
TABLE:  "FRAME DESIGN PROCEDURES"
   Frame=54748   DesignProc="From Material"
   Frame=54749   DesignProc="From Material"
   Frame=54750   DesignProc="From Material"
   Frame=54751   DesignProc="From Material"
   Frame=54752   DesignProc="From Material"
   Frame=54753   DesignProc="From Material"
   Frame=54754   DesignProc="From Material"
   Frame=54755   DesignProc="From Material"
   Frame=54756   DesignProc="From Material"
   Frame=54757   DesignProc="From Material"
   Frame=54758   DesignProc="From Material"
   Frame=54759   DesignProc="From Material"
   Frame=54760   DesignProc="From Material"
   Frame=54761   DesignProc="From Material"
   Frame=54762   DesignProc="From Material"
   Frame=54763   DesignProc="From Material"
   Frame=54764   DesignProc="From Material"
   Frame=54765   DesignProc="From Material"
   Frame=54766   DesignProc="From Material"
   Frame=54767   DesignProc="From Material"
# ... 13 like lines cut
   Frame=54781   DesignProc="No Design"
   Frame=54782   DesignProc="No Design"
   Frame=54783   DesignProc="From Material"
   Frame=54784   DesignProc="No Design"
   Frame=54785   DesignProc="No Design"
   Frame=54786   DesignProc="From Material"
   Frame=54787   DesignProc="No Design"
   Frame=54788   DesignProc="No Design"
   Frame=54789   DesignProc="From Material"
   Frame=54790   DesignProc="No Design"
   Frame=54791   DesignProc="No Design"
   Frame=54792   DesignProc="From Material"
   Frame=54793   DesignProc="No Design"
   Frame=54794   DesignProc="No Design"
   Frame=54795   DesignProc="From Material"
   Frame=54796   DesignProc="No Design"
   Frame=54797   DesignProc="No Design"
   Frame=54798   DesignProc="No Design"
   Frame=54799   DesignProc="No Design"
   Frame=54800   DesignProc="No Design"
   Frame=54801   DesignProc="No Design"
   Frame=54802   DesignProc="No Design"
   Frame=54803   DesignProc="No Design"
   Frame=54804   DesignProc="No Design"
   Frame=54805   DesignProc="No Design"
   Frame=54806   DesignProc="No Design"
   Frame=54807   DesignProc="No Design"
   Frame=54808   DesignProc="No Design"
   Frame=54809   DesignProc="No Design"
   Frame=54810   DesignProc="From Material"
   Frame=54811   DesignProc="From Material"
   Frame=54812   DesignProc="From Material"
   Frame=54813   DesignProc="From Material"
   Frame=54814   DesignProc="From Material"
 
TABLE:  "FRAME LOAD TRANSFER OPTIONS"
   Frame=54748   Transfer=Yes
   Frame=54749   Transfer=Yes
   Frame=54750   Transfer=Yes
   Frame=54751   Transfer=Yes
   Frame=54752   Transfer=Yes
   Frame=54753   Transfer=Yes
   Frame=54754   Transfer=Yes
   Frame=54755   Transfer=Yes
   Frame=54756   Transfer=Yes
   Frame=54757   Transfer=Yes
   Frame=54758   Transfer=Yes
   Frame=54759   Transfer=Yes
   Frame=54760   Transfer=Yes
   Frame=54761   Transfer=Yes
   Frame=54762   Transfer=Yes
   Frame=54763   Transfer=Yes
   Frame=54764   Transfer=Yes
   Frame=54765   Transfer=Yes
   Frame=54766   Transfer=Yes
   Frame=54767   Transfer=Yes
# ... 47 like lines cut
 
TABLE:  "FRAME LOCAL AXES ASSIGNMENTS 1 - TYPICAL"
   Frame=54780   Angle=90
   Frame=54783   Angle=90
   Frame=54786   Angle=90
   Frame=54789   Angle=90
   Frame=54792   Angle=90
   Frame=54795   Angle=90
 
TABLE:  "FRAME OUTPUT STATION ASSIGNMENTS"
   Frame=54748   StationType=MaxStaSpcg   MaxStaSpcg=0.5   AddAtElmInt=Yes   AddAtPtLoad=Yes
   Frame=54749   StationType=MaxStaSpcg   MaxStaSpcg=0.5   AddAtElmInt=Yes   AddAtPtLoad=Yes
   Frame=54750   StationType=MaxStaSpcg   MaxStaSpcg=0.5   AddAtElmInt=Yes   AddAtPtLoad=Yes
   Frame=54751   StationType=MaxStaSpcg   MaxStaSpcg=0.5   AddAtElmInt=Yes   AddAtPtLoad=Yes
   Frame=54752   StationType=MaxStaSpcg   MaxStaSpcg=0.5   AddAtElmInt=Yes   AddAtPtLoad=Yes
   Frame=54753   StationType=MaxStaSpcg   MaxStaSpcg=0.5   AddAtElmInt=Yes   AddAtPtLoad=Yes
   Frame=54754   StationType=MaxStaSpcg   MaxStaSpcg=0.5   AddAtElmInt=Yes   AddAtPtLoad=Yes
   Frame=54755   StationType=MaxStaSpcg   MaxStaSpcg=0.5   AddAtElmInt=Yes   AddAtPtLoad=Yes
   Frame=54756   StationType=MaxStaSpcg   MaxStaSpcg=0.5   AddAtElmInt=Yes   AddAtPtLoad=Yes
   Frame=54757   StationType=MaxStaSpcg   MaxStaSpcg=0.5   AddAtElmInt=Yes   AddAtPtLoad=Yes
   Frame=54758   StationType=MaxStaSpcg   MaxStaSpcg=0.5   AddAtElmInt=Yes   AddAtPtLoad=Yes
   Frame=54759   StationType=MaxStaSpcg   MaxStaSpcg=0.5   AddAtElmInt=Yes   AddAtPtLoad=Yes
   Frame=54760   StationType=MaxStaSpcg   MaxStaSpcg=0.5   AddAtElmInt=Yes   AddAtPtLoad=Yes
   Frame=54761   StationType=MaxStaSpcg   MaxStaSpcg=0.5   AddAtElmInt=Yes   AddAtPtLoad=Yes
   Frame=54762   StationType=MaxStaSpcg   MaxStaSpcg=0.5   AddAtElmInt=Yes   AddAtPtLoad=Yes
   Frame=54763   StationType=MaxStaSpcg   MaxStaSpcg=0.5   AddAtElmInt=Yes   AddAtPtLoad=Yes
   Frame=54764   StationType=MaxStaSpcg   MaxStaSpcg=0.5   AddAtElmInt=Yes   AddAtPtLoad=Yes
   Frame=54765   StationType=MaxStaSpcg   MaxStaSpcg=0.5   AddAtElmInt=Yes   AddAtPtLoad=Yes
   Frame=54766   StationType=MaxStaSpcg   MaxStaSpcg=0.5   AddAtElmInt=Yes   AddAtPtLoad=Yes
   Frame=54767   StationType=MaxStaSpcg   MaxStaSpcg=0.5   AddAtElmInt=Yes   AddAtPtLoad=Yes
# ... 12 like lines cut
   Frame=54780   StationType=MinNumSta   MinNumSta=3   AddAtElmInt=Yes   AddAtPtLoad=Yes
   Frame=54781   StationType=MinNumSta   MinNumSta=3   AddAtElmInt=Yes   AddAtPtLoad=Yes
   Frame=54782   StationType=MinNumSta   MinNumSta=3   AddAtElmInt=Yes   AddAtPtLoad=Yes
   Frame=54783   StationType=MinNumSta   MinNumSta=3   AddAtElmInt=Yes   AddAtPtLoad=Yes
   Frame=54784   StationType=MinNumSta   MinNumSta=3   AddAtElmInt=Yes   AddAtPtLoad=Yes
   Frame=54785   StationType=MinNumSta   MinNumSta=3   AddAtElmInt=Yes   AddAtPtLoad=Yes
   Frame=54786   StationType=MinNumSta   MinNumSta=3   AddAtElmInt=Yes   AddAtPtLoad=Yes
   Frame=54787   StationType=MinNumSta   MinNumSta=3   AddAtElmInt=Yes   AddAtPtLoad=Yes
   Frame=54788   StationType=MinNumSta   MinNumSta=3   AddAtElmInt=Yes   AddAtPtLoad=Yes
   Frame=54789   StationType=MinNumSta   MinNumSta=3   AddAtElmInt=Yes   AddAtPtLoad=Yes
   Frame=54790   StationType=MinNumSta   MinNumSta=3   AddAtElmInt=Yes   AddAtPtLoad=Yes
   Frame=54791   StationType=MinNumSta   MinNumSta=3   AddAtElmInt=Yes   AddAtPtLoad=Yes
   Frame=54792   StationType=MinNumSta   MinNumSta=3   AddAtElmInt=Yes   AddAtPtLoad=Yes
   Frame=54793   StationType=MinNumSta   MinNumSta=3   AddAtElmInt=Yes   AddAtPtLoad=Yes
   Frame=54794   StationType=MinNumSta   MinNumSta=3   AddAtElmInt=Yes   AddAtPtLoad=Yes
   Frame=54795   StationType=MinNumSta   MinNumSta=3   AddAtElmInt=Yes   AddAtPtLoad=Yes
   Frame=54796   StationType=MinNumSta   MinNumSta=3   AddAtElmInt=Yes   AddAtPtLoad=Yes
   Frame=54797   StationType=MinNumSta   MinNumSta=3   AddAtElmInt=Yes   AddAtPtLoad=Yes
   Frame=54798   StationType=MinNumSta   MinNumSta=3   AddAtElmInt=Yes   AddAtPtLoad=Yes
   Frame=54799   StationType=MinNumSta   MinNumSta=3   AddAtElmInt=Yes   AddAtPtLoad=Yes
# ... 10 like lines cut
   Frame=54810   StationType=MaxStaSpcg   MaxStaSpcg=0.5   AddAtElmInt=Yes   AddAtPtLoad=Yes
   Frame=54811   StationType=MaxStaSpcg   MaxStaSpcg=0.5   AddAtElmInt=Yes   AddAtPtLoad=Yes
   Frame=54812   StationType=MaxStaSpcg   MaxStaSpcg=0.5   AddAtElmInt=Yes   AddAtPtLoad=Yes
   Frame=54813   StationType=MaxStaSpcg   MaxStaSpcg=0.5   AddAtElmInt=Yes   AddAtPtLoad=Yes
   Frame=54814   StationType=MaxStaSpcg   MaxStaSpcg=0.5   AddAtElmInt=Yes   AddAtPtLoad=Yes
 
TABLE:  "FRAME SECTION ASSIGNMENTS"
   Frame=54748   AutoSelect=N.A.   AnalSect=TB   MatProp=Default
   Frame=54749   AutoSelect=N.A.   AnalSect=TB   MatProp=Default
   Frame=54750   AutoSelect=N.A.   AnalSect=TB   MatProp=Default
   Frame=54751   AutoSelect=N.A.   AnalSect=TB   MatProp=Default
   Frame=54752   AutoSelect=N.A.   AnalSect=TB   MatProp=Default
   Frame=54753   AutoSelect=N.A.   AnalSect=TB   MatProp=Default
   Frame=54754   AutoSelect=N.A.   AnalSect=TB   MatProp=Default
   Frame=54755   AutoSelect=N.A.   AnalSect=TB   MatProp=Default
   Frame=54756   AutoSelect=N.A.   AnalSect=TB   MatProp=Default
   Frame=54757   AutoSelect=N.A.   AnalSect=TB   MatProp=Default
   Frame=54758   AutoSelect=N.A.   AnalSect=TB   MatProp=Default
   Frame=54759   AutoSelect=N.A.   AnalSect=TB   MatProp=Default
   Frame=54760   AutoSelect=N.A.   AnalSect=TB   MatProp=Default
   Frame=54761   AutoSelect=N.A.   AnalSect=TB   MatProp=Default
   Frame=54762   AutoSelect=N.A.   AnalSect=TB   MatProp=Default
   Frame=54763   AutoSelect=N.A.   AnalSect=TB   MatProp=Default
   Frame=54764   AutoSelect=N.A.   AnalSect=TB   MatProp=Default
   Frame=54765   AutoSelect=N.A.   AnalSect=TB   MatProp=Default
   Frame=54766   AutoSelect=N.A.   AnalSect=LB   MatProp=Default
   Frame=54767   AutoSelect=N.A.   AnalSect=LB   MatProp=Default
   Frame=54768   AutoSelect=N.A.   AnalSect=LB   MatProp=Default
   Frame=54769   AutoSelect=N.A.   AnalSect=LB   MatProp=Default
   Frame=54770   AutoSelect=N.A.   AnalSect=LB   MatProp=Default
   Frame=54771   AutoSelect=N.A.   AnalSect=LB   MatProp=Default
   Frame=54772   AutoSelect=N.A.   AnalSect=LB   MatProp=Default
   Frame=54773   AutoSelect=N.A.   AnalSect=LB   MatProp=Default
   Frame=54774   AutoSelect=N.A.   AnalSect=LB   MatProp=Default
   Frame=54775   AutoSelect=N.A.   AnalSect=LB   MatProp=Default
   Frame=54776   AutoSelect=N.A.   AnalSect=LB   MatProp=Default
   Frame=54777   AutoSelect=N.A.   AnalSect=LB   MatProp=Default
   Frame=54778   AutoSelect=N.A.   AnalSect=LB   MatProp=Default
   Frame=54779   AutoSelect=N.A.   AnalSect=LB   MatProp=Default
   Frame=54780   AutoSelect=N.A.   AnalSect=EB   MatProp=Default
   Frame=54781   AutoSelect=N.A.   AnalSect=Piles   MatProp=Default
   Frame=54782   AutoSelect=N.A.   AnalSect=Piles   MatProp=Default
   Frame=54783   AutoSelect=N.A.   AnalSect=EB   MatProp=Default
   Frame=54784   AutoSelect=N.A.   AnalSect=Piles   MatProp=Default
   Frame=54785   AutoSelect=N.A.   AnalSect=Piles   MatProp=Default
   Frame=54786   AutoSelect=N.A.   AnalSect=EB   MatProp=Default
   Frame=54787   AutoSelect=N.A.   AnalSect=Piles   MatProp=Default
   Frame=54788   AutoSelect=N.A.   AnalSect=Piles   MatProp=Default
   Frame=54789   AutoSelect=N.A.   AnalSect=EB   MatProp=Default
   Frame=54790   AutoSelect=N.A.   AnalSect=Piles   MatProp=Default
   Frame=54791   AutoSelect=N.A.   AnalSect=Piles   MatProp=Default
   Frame=54792   AutoSelect=N.A.   AnalSect=EB   MatProp=Default
   Frame=54793   AutoSelect=N.A.   AnalSect=Piles   MatProp=Default
   Frame=54794   AutoSelect=N.A.   AnalSect=Piles   MatProp=Default
   Frame=54795   AutoSelect=N.A.   AnalSect=EB   MatProp=Default
   Frame=54796   AutoSelect=N.A.   AnalSect=Piles   MatProp=Default
   Frame=54797   AutoSelect=N.A.   AnalSect=Piles   MatProp=Default
   Frame=54798   AutoSelect=N.A.   AnalSect=Piles   MatProp=Default
   Frame=54799   AutoSelect=N.A.   AnalSect=Piles   MatProp=Default
   Frame=54800   AutoSelect=N.A.   AnalSect=Piles   MatProp=Default
   Frame=54801   AutoSelect=N.A.   AnalSect=Piles   MatProp=Default
   Frame=54802   AutoSelect=N.A.   AnalSect=Piles   MatProp=Default
   Frame=54803   AutoSelect=N.A.   AnalSect=Piles   MatProp=Default
   Frame=54804   AutoSelect=N.A.   AnalSect=Piles   MatProp=Default
   Frame=54805   AutoSelect=N.A.   AnalSect=Piles   MatProp=Default
   Frame=54806   AutoSelect=N.A.   AnalSect=Piles   MatProp=Default
   Frame=54807   AutoSelect=N.A.   AnalSect=Piles   MatProp=Default
   Frame=54808   AutoSelect=N.A.   AnalSect=Piles   MatProp=Default
   Frame=54809   AutoSelect=N.A.   AnalSect=Piles   MatProp=Default
   Frame=54810   AutoSelect=N.A.   AnalSect=EB-1   MatProp=Default
   Frame=54811   AutoSelect=N.A.   AnalSect=EB-1   MatProp=Default
   Frame=54812   AutoSelect=N.A.   AnalSect=EB-1   MatProp=Default
   Frame=54813   AutoSelect=N.A.   AnalSect=EB-1   MatProp=Default
   Frame=54814   AutoSelect=N.A.   AnalSect=EB-1   MatProp=Default
 
TABLE:  "FRAME SECTION PROPERTIES 01 - GENERAL"
   SectionName=EB   Material=BTCT   Shape=Rectangular   t3=1.2   t2=0.7   Area=0.84   TorsConst=0.087265516288098   I33=0.1008   I22=0.0343   I23=0   AS2=0.7   AS3=0.7   S33Top=0.168   S33Bot=0.168   S22Left=0.098   S22Right=0.098 _
        Z33=0.252   Z22=0.147   R33=0.346410161513775   R22=0.202072594216369   CGOffset3=0   CGOffset2=0   EccV2=0   EccV3=0   Cw=0   Color=Red   FromFile=No   AMod=1   A2Mod=1   A3Mod=1   JMod=1   I2Mod=1   I3Mod=1   MMod=1   WMod=1
   SectionName=EB-1   Material=BTCT   Shape=Rectangular   t3=0.7   t2=0.7   Area=0.49   TorsConst=0.0338140833333333   I33=0.0200083333333333   I22=0.0200083333333333   I23=0   AS2=0.408333333333333   AS3=0.408333333333333 _
        S33Top=0.0571666666666667   S33Bot=0.0571666666666667   S22Left=0.0571666666666667   S22Right=0.0571666666666667   Z33=0.08575   Z22=0.08575   R33=0.202072594216369   R22=0.202072594216369   CGOffset3=0   CGOffset2=0   EccV2=0 _
        EccV3=0   Cw=0   Color=Magenta   FromFile=No   AMod=1   A2Mod=1   A3Mod=1   JMod=1   I2Mod=1   I3Mod=1   MMod=1   WMod=1
   SectionName=LB   Material=BTCT   Shape=Rectangular   t3=0.5   t2=0.7   Area=0.35   TorsConst=0.016326378765792   I33=0.00729166666666667   I22=0.0142916666666667   I23=0   AS2=0.291666666666667   AS3=0.291666666666667 _
        S33Top=0.0291666666666667   S33Bot=0.0291666666666667   S22Left=0.0408333333333333   S22Right=0.0408333333333333   Z33=0.04375   Z22=0.06125   R33=0.144337567297406   R22=0.202072594216369   CGOffset3=0   CGOffset2=0   EccV2=0 _
        EccV3=0   Cw=0   Color=Cyan   FromFile=No   AMod=1   A2Mod=1   A3Mod=1   JMod=1   I2Mod=1   I3Mod=1   MMod=1   WMod=1
   SectionName=Piles   Material=BTCTCOC   Shape=Pipe   t3=0.5   tw=0.08   Area=0.105557513160617   TorsConst=0.0048239783514402   I33=0.0024119891757201   I22=0.0024119891757201   I23=0   AS2=0.054040086087829   AS3=0.054040086087829 _
        S33Top=0.0096479567028804   S33Bot=0.0096479567028804   S22Left=0.0096479567028804   S22Right=0.0096479567028804   Z33=0.0142826666666667   Z22=0.0142826666666667   R33=0.15116216457831   R22=0.15116216457831   CGOffset3=0 _
        CGOffset2=0   EccV2=0   EccV3=0   Cw=0   Color=Yellow   FromFile=No   AMod=1   A2Mod=1   A3Mod=1   JMod=1   I2Mod=1   I3Mod=1   MMod=1   WMod=1
   SectionName=TB   Material=BTCT   Shape=Rectangular   t3=0.5   t2=0.7   Area=0.35   TorsConst=0.016326378765792   I33=0.00729166666666667   I22=0.0142916666666667   I23=0   AS2=0.291666666666667   AS3=0.291666666666667 _
        S33Top=0.0291666666666667   S33Bot=0.0291666666666667   S22Left=0.0408333333333333   S22Right=0.0408333333333333   Z33=0.04375   Z22=0.06125   R33=0.144337567297406   R22=0.202072594216369   CGOffset3=0   CGOffset2=0   EccV2=0 _
        EccV3=0   Cw=0   Color=Green   FromFile=No   AMod=1   A2Mod=1   A3Mod=1   JMod=1   I2Mod=1   I3Mod=1   MMod=1   WMod=1
 
TABLE:  "FRAME SECTION PROPERTIES 02 - CONCRETE COLUMN"
   SectionName=EB   RebarMatL=A706   RebarMatC=A706   ReinfConfig=Rectangular   LatReinf=Ties   Cover=0.05   NumBars3Dir=2   NumBars2Dir=2   BarSizeL=12d   BarSizeC=10d   SpacingC=0.1   NumCBars2=2   NumCBars3=2   ReinfType=Design
   SectionName=EB-1   RebarMatL=A706   RebarMatC=A706   ReinfConfig=Rectangular   LatReinf=Ties   Cover=0.05   NumBars3Dir=2   NumBars2Dir=2   BarSizeL=12d   BarSizeC=10d   SpacingC=0.1   NumCBars2=2   NumCBars3=2   ReinfType=Design
   SectionName=LB   RebarMatL=A706   RebarMatC=A706   ReinfConfig=Rectangular   LatReinf=Ties   Cover=0.05   NumBars3Dir=2   NumBars2Dir=2   BarSizeL=12d   BarSizeC=10d   SpacingC=0.1   NumCBars2=2   NumCBars3=2   ReinfType=Design
   SectionName=TB   RebarMatL=A706   RebarMatC=A706   ReinfConfig=Rectangular   LatReinf=Ties   Cover=0.05   NumBars3Dir=2   NumBars2Dir=2   BarSizeL=12d   BarSizeC=10d   SpacingC=0.1   NumCBars2=2   NumCBars3=2   ReinfType=Design
 
TABLE:  "FRAME SECTION PROPERTIES 13 - TIME DEPENDENT"
   SectionName=EB   TypeSize=Auto   AutoSFSize=1
   SectionName=EB-1   TypeSize=Auto   AutoSFSize=1
   SectionName=LB   TypeSize=Auto   AutoSFSize=1
   SectionName=Piles   TypeSize=Auto   AutoSFSize=1
   SectionName=TB   TypeSize=Auto   AutoSFSize=1
 
TABLE:  "FUNCTION - PLOT FUNCTIONS"
   PlotFunc="Input Energy"   Type=Energy   Component=Input   Mode=All
 
TABLE:  "FUNCTION - POWER SPECTRAL DENSITY - USER"
   Name=UNIFPSD   Frequency=0   Value=1
   Name=UNIFPSD   Frequency=1   Value=1
 
TABLE:  "FUNCTION - RESPONSE SPECTRUM - USER"
   Name=UNIFRS   Period=0   Accel=1   FuncDamp=0.05
   Name=UNIFRS   Period=1   Accel=1
 
TABLE:  "FUNCTION - STEADY STATE - USER"
   Name=UNIFSS   Frequency=0   Value=1
   Name=UNIFSS   Frequency=1   Value=1
 
TABLE:  "FUNCTION - TIME HISTORY - USER"
   Name=RAMPTH   Time=0   Value=0
   Name=RAMPTH   Time=1   Value=1
   Name=RAMPTH   Time=4   Value=1
   Name=UNIFTH   Time=0   Value=1
   Name=UNIFTH   Time=1   Value=1
 
TABLE:  "GRID LINES"
   CoordSys=GLOBAL   AxisDir=X   GridID=A   XRYZCoord=-10   LineType=Primary   LineColor=Gray8Dark   Visible=Yes   BubbleLoc=End   AllVisible=Yes   BubbleSize=0.9375
   CoordSys=GLOBAL   AxisDir=X   GridID=B   XRYZCoord=-9   LineType=Primary   LineColor=Gray8Dark   Visible=Yes   BubbleLoc=End
   CoordSys=GLOBAL   AxisDir=X   GridID=C   XRYZCoord=-4.5   LineType=Primary   LineColor=Gray8Dark   Visible=Yes   BubbleLoc=End
   CoordSys=GLOBAL   AxisDir=X   GridID=D   XRYZCoord=0   LineType=Primary   LineColor=Gray8Dark   Visible=Yes   BubbleLoc=End
   CoordSys=GLOBAL   AxisDir=X   GridID=E   XRYZCoord=4.5   LineType=Primary   LineColor=Gray8Dark   Visible=Yes   BubbleLoc=End
   CoordSys=GLOBAL   AxisDir=X   GridID=F   XRYZCoord=9   LineType=Primary   LineColor=Gray8Dark   Visible=Yes   BubbleLoc=End
   CoordSys=GLOBAL   AxisDir=X   GridID=G   XRYZCoord=10   LineType=Primary   LineColor=Gray8Dark   Visible=Yes   BubbleLoc=End
   CoordSys=GLOBAL   AxisDir=Y   GridID=1   XRYZCoord=-5.2   LineType=Primary   LineColor=Gray8Dark   Visible=Yes   BubbleLoc=Start
   CoordSys=GLOBAL   AxisDir=Y   GridID=2   XRYZCoord=-4.2   LineType=Primary   LineColor=Gray8Dark   Visible=Yes   BubbleLoc=Start
   CoordSys=GLOBAL   AxisDir=Y   GridID=3   XRYZCoord=0   LineType=Primary   LineColor=Gray8Dark   Visible=Yes   BubbleLoc=Start
   CoordSys=GLOBAL   AxisDir=Y   GridID=4   XRYZCoord=4.2   LineType=Primary   LineColor=Gray8Dark   Visible=Yes   BubbleLoc=Start
   CoordSys=GLOBAL   AxisDir=Y   GridID=5   XRYZCoord=4.8   LineType=Primary   LineColor=Gray8Dark   Visible=Yes   BubbleLoc=Start
   CoordSys=GLOBAL   AxisDir=Z   GridID=Z1   XRYZCoord=0   LineType=Primary   LineColor=Gray8Dark   Visible=Yes   BubbleLoc=End
   CoordSys=GLOBAL   AxisDir=Z   GridID=Z2   XRYZCoord=13   LineType=Primary   LineColor=Gray8Dark   Visible=Yes   BubbleLoc=End
 
TABLE:  "GROUPS 1 - DEFINITIONS"
   GroupName=ALL   Selection=Yes   SectionCut=Yes   Steel=Yes   Concrete=Yes   Aluminum=Yes   ColdFormed=Yes   Stage=Yes   Bridge=Yes   AutoSeismic=No   AutoWind=No   SelDesSteel=No   SelDesAlum=No   SelDesCold=No   MassWeight=Yes   Color=Red
   GroupName=Pile   Selection=Yes   SectionCut=Yes   Steel=Yes   Concrete=Yes   Aluminum=Yes   ColdFormed=Yes   Stage=Yes   Bridge=Yes   AutoSeismic=No   AutoWind=No   SelDesSteel=No   SelDesAlum=No   SelDesCold=No   MassWeight=Yes   Color=Gray8Dark
   GroupName=DN   Selection=Yes   SectionCut=Yes   Steel=Yes   Concrete=Yes   Aluminum=Yes   ColdFormed=Yes   Stage=Yes   Bridge=Yes   AutoSeismic=No   AutoWind=No   SelDesSteel=No   SelDesAlum=No   SelDesCold=No   MassWeight=Yes   Color=Yellow
   GroupName=Pile_Toe   Selection=Yes   SectionCut=Yes   Steel=Yes   Concrete=Yes   Aluminum=Yes   ColdFormed=Yes   Stage=Yes   Bridge=Yes   AutoSeismic=No   AutoWind=No   SelDesSteel=No   SelDesAlum=No   SelDesCold=No   MassWeight=Yes   Color=Green
   GroupName=Pile_Bend   Selection=Yes   SectionCut=Yes   Steel=Yes   Concrete=Yes   Aluminum=Yes   ColdFormed=Yes   Stage=Yes   Bridge=Yes   AutoSeismic=No   AutoWind=No   SelDesSteel=No   SelDesAlum=No   SelDesCold=No   MassWeight=Yes   Color=Cyan
   GroupName=Beam   Selection=Yes   SectionCut=Yes   Steel=Yes   Concrete=Yes   Aluminum=Yes   ColdFormed=Yes   Stage=Yes   Bridge=Yes   AutoSeismic=No   AutoWind=No   SelDesSteel=No   SelDesAlum=No   SelDesCold=No   MassWeight=Yes   Color=Blue
   GroupName=Piles   Selection=Yes   SectionCut=Yes   Steel=Yes   Concrete=Yes   Aluminum=Yes   ColdFormed=Yes   Stage=Yes   Bridge=Yes   AutoSeismic=No   AutoWind=No   SelDesSteel=No   SelDesAlum=No   SelDesCold=No   MassWeight=Yes   Color=Cyan
   GroupName=Beams   Selection=Yes   SectionCut=Yes   Steel=Yes   Concrete=Yes   Aluminum=Yes   ColdFormed=Yes   Stage=Yes   Bridge=Yes   AutoSeismic=No   AutoWind=No   SelDesSteel=No   SelDesAlum=No   SelDesCold=No   MassWeight=Yes   Color=Red
 
TABLE:  "GROUPS 2 - ASSIGNMENTS"
 
TABLE:  "JOINT COORDINATES"
   Joint=50222   CoordSys=GLOBAL   CoordType=Cartesian   XorR=-9.25   Y=-5   Z=0   SpecialJt=No   GUID=e8493487-cf61-4093-b4f6-05df5e7b11f2
   Joint=50223   CoordSys=GLOBAL   CoordType=Cartesian   XorR=-9.25   Y=-2.95   Z=0   SpecialJt=No   GUID=318ae042-ed5b-49f4-bed4-b3bb912c0dec
   Joint=50224   CoordSys=GLOBAL   CoordType=Cartesian   XorR=-5.55   Y=-5   Z=0   SpecialJt=No   GUID=b85c29e9-191d-4d71-99da-67d20efca9dc
   Joint=50225   CoordSys=GLOBAL   CoordType=Cartesian   XorR=-5.55   Y=-2.95   Z=0   SpecialJt=No   GUID=ff38d280-3acd-4792-8df9-5906973d650b
   Joint=50226   CoordSys=GLOBAL   CoordType=Cartesian   XorR=-1.85   Y=-5   Z=0   SpecialJt=No   GUID=b913be50-50d1-4a70-99f4-e4097f96bec1
   Joint=50227   CoordSys=GLOBAL   CoordType=Cartesian   XorR=-1.85   Y=-2.95   Z=0   SpecialJt=No   GUID=06fa031b-a592-4ff7-bae9-7baf3e81af68
   Joint=50228   CoordSys=GLOBAL   CoordType=Cartesian   XorR=1.85   Y=-5   Z=0   SpecialJt=No   GUID=3237817d-51dc-445e-a779-4dc609c3f054
   Joint=50229   CoordSys=GLOBAL   CoordType=Cartesian   XorR=1.85   Y=-2.95   Z=0   SpecialJt=No   GUID=99d0daef-f8ce-40ac-b93b-d19e6042d7c4
   Joint=50230   CoordSys=GLOBAL   CoordType=Cartesian   XorR=5.55   Y=-5   Z=0   SpecialJt=No   GUID=a20a8c39-5d3e-40c2-9c3d-6dc31aa1a4ea
   Joint=50231   CoordSys=GLOBAL   CoordType=Cartesian   XorR=5.55   Y=-2.95   Z=0   SpecialJt=No   GUID=4a045bfc-f07c-47b3-a070-a31d555ceb44
   Joint=50232   CoordSys=GLOBAL   CoordType=Cartesian   XorR=9.25   Y=-5   Z=0   SpecialJt=No   GUID=cacacd56-a8b1-4119-b74e-f96479535949
   Joint=50233   CoordSys=GLOBAL   CoordType=Cartesian   XorR=9.25   Y=-2.95   Z=0   SpecialJt=No   GUID=bd15e575-1b00-4f7e-b1e3-4247d092ee2e
   Joint=50234   CoordSys=GLOBAL   CoordType=Cartesian   XorR=-9.25   Y=2.95   Z=0   SpecialJt=No   GUID=c5fbd8b6-bbca-4708-ba40-719020e3584f
   Joint=50235   CoordSys=GLOBAL   CoordType=Cartesian   XorR=-5.55   Y=2.95   Z=0   SpecialJt=No   GUID=60ec38da-9884-4070-bc5e-5ba254c7b930
   Joint=50236   CoordSys=GLOBAL   CoordType=Cartesian   XorR=-1.85   Y=2.95   Z=0   SpecialJt=No   GUID=d256a394-ed83-415c-a3d9-e6ef470f7a21
   Joint=50237   CoordSys=GLOBAL   CoordType=Cartesian   XorR=1.85   Y=2.95   Z=0   SpecialJt=No   GUID=33c6c09e-7619-40ff-9389-cf92092f6f88
   Joint=50238   CoordSys=GLOBAL   CoordType=Cartesian   XorR=5.55   Y=2.95   Z=0   SpecialJt=No   GUID=af18098c-fe5d-46ad-900f-ebb80a791275
   Joint=50239   CoordSys=GLOBAL   CoordType=Cartesian   XorR=9.25   Y=2.95   Z=0   SpecialJt=No   GUID=1615120a-55bd-4539-af43-b942d311b72e
   Joint=50240   CoordSys=GLOBAL   CoordType=Cartesian   XorR=-9.25   Y=5   Z=0   SpecialJt=No   GUID=8847d881-99d9-41a5-ad96-d372dccfa896
   Joint=50241   CoordSys=GLOBAL   CoordType=Cartesian   XorR=-5.55   Y=5   Z=0   SpecialJt=No   GUID=ef55281a-74e1-4d0e-9b03-8d1b01e497c2
   Joint=50242   CoordSys=GLOBAL   CoordType=Cartesian   XorR=-1.85   Y=5   Z=0   SpecialJt=No   GUID=644cd7f0-0195-42db-b648-5f887e5a9a8d
   Joint=50243   CoordSys=GLOBAL   CoordType=Cartesian   XorR=1.85   Y=5   Z=0   SpecialJt=No   GUID=ef126e5c-f107-4337-acde-390e657ef779
   Joint=50244   CoordSys=GLOBAL   CoordType=Cartesian   XorR=5.55   Y=5   Z=0   SpecialJt=No   GUID=b266b1e8-9e9b-4a39-9357-7a8ffd03fbae
   Joint=50245   CoordSys=GLOBAL   CoordType=Cartesian   XorR=9.25   Y=5   Z=0   SpecialJt=No   GUID=8d0b181a-c7b3-4286-afc4-61eec4cb6566
   Joint=50246   CoordSys=GLOBAL   CoordType=Cartesian   XorR=-10   Y=-2.95   Z=0   SpecialJt=No   GUID=be076b01-dd39-4282-b84d-f242019a8532
   Joint=50247   CoordSys=GLOBAL   CoordType=Cartesian   XorR=-10   Y=2.95   Z=0   SpecialJt=No   GUID=c4b2bac0-a86e-4aca-9f05-a24cb3fb8008
   Joint=50248   CoordSys=GLOBAL   CoordType=Cartesian   XorR=10   Y=-2.95   Z=0   SpecialJt=No   GUID=e684ca77-c8c3-407a-a1d2-173ae8f6cdc1
   Joint=50249   CoordSys=GLOBAL   CoordType=Cartesian   XorR=10   Y=2.95   Z=0   SpecialJt=No   GUID=4e862058-3b05-4d71-bc76-eba578459bdd
   Joint=50250   CoordSys=GLOBAL   CoordType=Cartesian   XorR=-9.25   Y=-2.95   Z=-3   SpecialJt=No   GUID=b7b31711-1951-4016-9b53-3c3ac77dbfe5
   Joint=50251   CoordSys=GLOBAL   CoordType=Cartesian   XorR=-9.25   Y=-2.95   Z=-14.4449607588658   SpecialJt=No   GUID=edd2dedf-34b7-454c-a651-ed74fee16f0e
   Joint=50252   CoordSys=GLOBAL   CoordType=Cartesian   XorR=-9.25   Y=-2.95   Z=-18.9   SpecialJt=No   GUID=23805843-3eb4-4fc1-a233-f0424aac1c9b
   Joint=50253   CoordSys=GLOBAL   CoordType=Cartesian   XorR=-5.55   Y=-2.95   Z=-3   SpecialJt=No   GUID=fd20409d-7c6c-42ba-9c48-4db5c83cfe4c
   Joint=50254   CoordSys=GLOBAL   CoordType=Cartesian   XorR=-5.55   Y=-2.95   Z=-14.4449607588658   SpecialJt=No   GUID=a742d700-1d96-4cb8-a964-96701b1b94e7
   Joint=50255   CoordSys=GLOBAL   CoordType=Cartesian   XorR=-5.55   Y=-2.95   Z=-18.9   SpecialJt=No   GUID=5e657605-7947-4256-9c47-3fdfbdf6b836
   Joint=50256   CoordSys=GLOBAL   CoordType=Cartesian   XorR=-1.85   Y=-2.95   Z=-3   SpecialJt=No   GUID=605a4f5d-d2e3-4e1f-a4fe-55db1e4d4de6
   Joint=50257   CoordSys=GLOBAL   CoordType=Cartesian   XorR=-1.85   Y=-2.95   Z=-14.4449607588658   SpecialJt=No   GUID=b1cb63f0-718a-4b14-a8cd-7a1557f4e3c2
   Joint=50258   CoordSys=GLOBAL   CoordType=Cartesian   XorR=-1.85   Y=-2.95   Z=-18.9   SpecialJt=No   GUID=abd0c13b-b2fc-4e9b-b761-0f309566c5fb
   Joint=50259   CoordSys=GLOBAL   CoordType=Cartesian   XorR=1.85   Y=-2.95   Z=-3   SpecialJt=No   GUID=8fd56333-4a3b-4998-8dd3-dfd2c04a8a4e
   Joint=50260   CoordSys=GLOBAL   CoordType=Cartesian   XorR=1.85   Y=-2.95   Z=-14.4449607588658   SpecialJt=No   GUID=7c52ec9d-4272-45b1-b652-7120ec1c54ff
   Joint=50261   CoordSys=GLOBAL   CoordType=Cartesian   XorR=1.85   Y=-2.95   Z=-18.9   SpecialJt=No   GUID=c4042e1b-0146-4882-8f97-9489a3520fc8
   Joint=50262   CoordSys=GLOBAL   CoordType=Cartesian   XorR=5.55   Y=-2.95   Z=-3   SpecialJt=No   GUID=919de72c-a072-4ffc-bf2f-32030e2a544d
   Joint=50263   CoordSys=GLOBAL   CoordType=Cartesian   XorR=5.55   Y=-2.95   Z=-14.4449607588658   SpecialJt=No   GUID=3aa36cef-5c12-4ef1-8962-477c9d6c893c
   Joint=50264   CoordSys=GLOBAL   CoordType=Cartesian   XorR=5.55   Y=-2.95   Z=-18.9   SpecialJt=No   GUID=e93280c8-deb0-429f-8c29-a8c9691dc616
   Joint=50265   CoordSys=GLOBAL   CoordType=Cartesian   XorR=9.25   Y=-2.95   Z=-3   SpecialJt=No   GUID=c5d4cbb1-4ace-495d-8c11-f45b7c00bd16
   Joint=50266   CoordSys=GLOBAL   CoordType=Cartesian   XorR=9.25   Y=-2.95   Z=-14.4449607588658   SpecialJt=No   GUID=ba424fa6-7f70-459a-a41e-13cef46d76ab
   Joint=50267   CoordSys=GLOBAL   CoordType=Cartesian   XorR=9.25   Y=-2.95   Z=-18.9   SpecialJt=No   GUID=c2d90744-8536-4dae-af80-6126d03e26ce
   Joint=50268   CoordSys=GLOBAL   CoordType=Cartesian   XorR=-9.25   Y=2.95   Z=-14.4449607588658   SpecialJt=No   GUID=be0ea1b4-57f3-4d5e-b6a3-08184a381ec9
   Joint=50269   CoordSys=GLOBAL   CoordType=Cartesian   XorR=-9.25   Y=2.95   Z=-18.9   SpecialJt=No   GUID=f2809c32-881c-4e9a-b062-4ea1abf4dfe5
   Joint=50270   CoordSys=GLOBAL   CoordType=Cartesian   XorR=-5.55   Y=2.95   Z=-14.4449607588658   SpecialJt=No   GUID=c9d77516-3a25-4e49-8449-6546386c993d
   Joint=50271   CoordSys=GLOBAL   CoordType=Cartesian   XorR=-5.55   Y=2.95   Z=-18.9   SpecialJt=No   GUID=c4ffd475-07c1-4db5-b9bf-b7e3c81f53cd
   Joint=50272   CoordSys=GLOBAL   CoordType=Cartesian   XorR=-1.85   Y=2.95   Z=-14.4449607588658   SpecialJt=No   GUID=2593ef7f-3a24-484a-aa56-b73e75327f66
   Joint=50273   CoordSys=GLOBAL   CoordType=Cartesian   XorR=-1.85   Y=2.95   Z=-18.9   SpecialJt=No   GUID=26f8ec65-895f-4887-b9b4-3fdf3f2ab79d
   Joint=50274   CoordSys=GLOBAL   CoordType=Cartesian   XorR=1.85   Y=2.95   Z=-14.4449607588658   SpecialJt=No   GUID=3715976d-73f3-49b8-a6f4-96d46c964db8
   Joint=50275   CoordSys=GLOBAL   CoordType=Cartesian   XorR=1.85   Y=2.95   Z=-18.9   SpecialJt=No   GUID=d33411c7-1b2a-49a3-a160-605e57036b49
   Joint=50276   CoordSys=GLOBAL   CoordType=Cartesian   XorR=5.55   Y=2.95   Z=-14.4449607588658   SpecialJt=No   GUID=a0ad1497-e1dd-4955-b714-3f2d7dec3148
   Joint=50277   CoordSys=GLOBAL   CoordType=Cartesian   XorR=5.55   Y=2.95   Z=-18.9   SpecialJt=No   GUID=db8354b5-4f09-4e85-b4e7-a27b4a51bd24
   Joint=50278   CoordSys=GLOBAL   CoordType=Cartesian   XorR=9.25   Y=2.95   Z=-14.4449607588658   SpecialJt=No   GUID=3a02dedd-aa8f-44a3-93d5-1f346736e15f
   Joint=50279   CoordSys=GLOBAL   CoordType=Cartesian   XorR=9.25   Y=2.95   Z=-18.9   SpecialJt=No   GUID=1c579c8d-7855-48e5-8f87-a1cd8985d94d
   Joint=50280   CoordSys=GLOBAL   CoordType=Cartesian   XorR=-10   Y=-5   Z=0   SpecialJt=No   GUID=82838c1c-9da5-4503-a614-f66c9088a20c
   Joint=50281   CoordSys=GLOBAL   CoordType=Cartesian   XorR=10   Y=-5   Z=0   SpecialJt=No   GUID=521c05b2-381e-44f2-a675-8adf59243ae7
   Joint=50282   CoordSys=GLOBAL   CoordType=Cartesian   XorR=-10   Y=5   Z=0   SpecialJt=No   GUID=4fa76870-b25e-41ab-b089-80dc237d8f9a
   Joint=50283   CoordSys=GLOBAL   CoordType=Cartesian   XorR=10   Y=5   Z=0   SpecialJt=No   GUID=b71e82a0-954b-4157-b313-7b6f032e9363
 
TABLE:  "JOINT PATTERN DEFINITIONS"
   Pattern=Default
 
TABLE:  "JOINT RESTRAINT ASSIGNMENTS"
   Joint=50251   U1=Yes   U2=Yes   U3=No   R1=Yes   R2=Yes   R3=Yes
   Joint=50252   U1=No   U2=No   U3=Yes   R1=No   R2=No   R3=No
   Joint=50254   U1=Yes   U2=Yes   U3=No   R1=Yes   R2=Yes   R3=Yes
   Joint=50255   U1=No   U2=No   U3=Yes   R1=No   R2=No   R3=No
   Joint=50257   U1=Yes   U2=Yes   U3=No   R1=Yes   R2=Yes   R3=Yes
   Joint=50258   U1=No   U2=No   U3=Yes   R1=No   R2=No   R3=No
   Joint=50260   U1=Yes   U2=Yes   U3=No   R1=Yes   R2=Yes   R3=Yes
   Joint=50261   U1=No   U2=No   U3=Yes   R1=No   R2=No   R3=No
   Joint=50263   U1=Yes   U2=Yes   U3=No   R1=Yes   R2=Yes   R3=Yes
   Joint=50264   U1=No   U2=No   U3=Yes   R1=No   R2=No   R3=No
   Joint=50266   U1=Yes   U2=Yes   U3=No   R1=Yes   R2=Yes   R3=Yes
   Joint=50267   U1=No   U2=No   U3=Yes   R1=No   R2=No   R3=No
   Joint=50268   U1=Yes   U2=Yes   U3=No   R1=Yes   R2=Yes   R3=Yes
   Joint=50269   U1=No   U2=No   U3=Yes   R1=No   R2=No   R3=No
   Joint=50270   U1=Yes   U2=Yes   U3=No   R1=Yes   R2=Yes   R3=Yes
   Joint=50271   U1=No   U2=No   U3=Yes   R1=No   R2=No   R3=No
   Joint=50272   U1=Yes   U2=Yes   U3=No   R1=Yes   R2=Yes   R3=Yes
   Joint=50273   U1=No   U2=No   U3=Yes   R1=No   R2=No   R3=No
   Joint=50274   U1=Yes   U2=Yes   U3=No   R1=Yes   R2=Yes   R3=Yes
   Joint=50275   U1=No   U2=No   U3=Yes   R1=No   R2=No   R3=No
   Joint=50276   U1=Yes   U2=Yes   U3=No   R1=Yes   R2=Yes   R3=Yes
   Joint=50277   U1=No   U2=No   U3=Yes   R1=No   R2=No   R3=No
   Joint=50278   U1=Yes   U2=Yes   U3=No   R1=Yes   R2=Yes   R3=Yes
   Joint=50279   U1=No   U2=No   U3=Yes   R1=No   R2=No   R3=No
 
TABLE:  "LOAD CASE DEFINITIONS"
   Case=DEAD   Type=LinStatic   InitialCond=Zero   DesTypeOpt="Prog Det"   DesignType=Dead   DesActOpt="Prog Det"   DesignAct=Non-Composite   AutoType=None   RunCase=Yes
   Case=MODAL   Type=LinModal   InitialCond=Zero   DesTypeOpt="Prog Det"   DesignType=Other   DesActOpt="Prog Det"   DesignAct=Other   AutoType=None   RunCase=Yes
   Case=LL   Type=LinStatic   InitialCond=Zero   DesTypeOpt="Prog Det"   DesignType=Live   DesActOpt="Prog Det"   DesignAct="Short-Term Composite"   AutoType=None   RunCase=Yes
 
TABLE:  "LOAD PATTERN DEFINITIONS"
   LoadPat=DEAD   DesignType=Dead   SelfWtMult=1
   LoadPat=LL   DesignType=Live   SelfWtMult=0
 
TABLE:  "MASS SOURCE"
   MassSource=MSSSRC1   Elements=Yes   Masses=Yes   Loads=No   IsDefault=Yes
 
TABLE:  "MATERIAL PROPERTIES 01 - GENERAL"
   Material=A706   Type=Rebar   SymType=Uniaxial   TempDepend=No   Color=Gray8Dark   GUID=30185aab-1311-4f4b-9ffe-ddad707d22d9   Notes="ASTM A706 added 8/23/2025 4:27:57 PM"
   Material=BTCT   Type=Concrete   SymType=Isotropic   TempDepend=No   Color=Blue   Notes="Concrete added 24-Feb-23 16:30:01"
   Material=BTCTCOC   Type=Concrete   SymType=Isotropic   TempDepend=No   Color=Blue   Notes="Concrete added 24-Feb-23 16:30:01"
   Material=Steel   Type=Steel   SymType=Isotropic   TempDepend=No   Color=Magenta   GUID=2f952889-4898-4964-97a4-5fb5c5008d33   Notes="Steel added 8/24/2025 2:51:43 PM"
   Material=Tendon   Type=Tendon   SymType=Uniaxial   TempDepend=No   Color=Yellow   GUID=7dfcd093-823e-4b3a-b96f-35d5bcaf456f   Notes="Tendon added 8/24/2025 2:51:43 PM"
 
TABLE:  "MATERIAL PROPERTIES 02 - BASIC MECHANICAL PROPERTIES"
   Material=A706   UnitWeight=7.84904757236607   UnitMass=0.800380070686609   E1=20389019.1580383   A1=1.16999994421006E-05
   Material=BTCT   UnitWeight=2.40276966501002   UnitMass=0.245014307353044   E1=2900000   G12=1208333.33333333   U12=0.2   A1=9.9E-06
   Material=BTCTCOC   UnitWeight=2.40276966501002   UnitMass=0.245014307353044   E1=3800000000   G12=1583333333.33333   U12=0.2   A1=9.9E-06
   Material=Steel   UnitWeight=7.84904757236607   UnitMass=0.800380070686609   E1=20389019.1580383   G12=7841930.44539935   U12=0.3   A1=1.17E-05
   Material=Tendon   UnitWeight=7.84904757236607   UnitMass=0.800380070686609   E1=20037484.3449687   A1=1.16999994421006E-05
 
TABLE:  "MATERIAL PROPERTIES 03A - STEEL DATA"
   Material=Steel   Fy=35153.4813069626   Fu=45699.5256990514   EffFy=38668.8294376589   EffFu=50269.4782689565   SSCurveOpt=Simple   SSHysType=Kinematic   SHard=0.015   SMax=0.11   SRup=0.17   FinalSlope=-0.1   CoupModType="Von Mises"
 
TABLE:  "MATERIAL PROPERTIES 03B - CONCRETE DATA"
   Material=BTCT   Fc=2812.27850455701   eFc=2812.27850455701   LtWtConc=No   SSCurveOpt=Mander   SSHysType=Takeda   SFc=0.002   SCap=0.005   FinalSlope=-0.1   FAngle=0   DAngle=0   CoupModType="Modified Darwin-Pecknold"
   Material=BTCTCOC   Fc=2812.27850455701   eFc=2812.27850455701   LtWtConc=No   SSCurveOpt=Mander   SSHysType=Takeda   SFc=0.002   SCap=0.005   FinalSlope=-0.1   FAngle=0   DAngle=0   CoupModType="Modified Darwin-Pecknold"
 
TABLE:  "MATERIAL PROPERTIES 03E - REBAR DATA"
   Material=A706   Fy=42184.1775683551   Fu=56245.5700911402   EffFy=46402.5953251907   EffFu=61870.1271002542   SSCurveOpt=Simple   SSHysType=Kinematic   SHard=0.011   SCap=0.11   FinalSlope=-0.1   UseCTDef=No   CoupModType="Von Mises"
 
TABLE:  "MATERIAL PROPERTIES 03F - TENDON DATA"
   Material=Tendon   Fy=172322.365366731   Fu=189828.799057598   SSCurveOpt="270 ksi"   SSHysType=Kinematic   FinalSlope=-0.1   CoupModType="Von Mises"
 
TABLE:  "MATERIAL PROPERTIES 03J - COUPLED NONLINEAR VON MISES DATA"
   Material=A706   YieldStress=46402.5953251907   LinIsoHard=No   LinKinHard=No   NLIsoSaHard=No
   Material=Steel   YieldStress=38668.8294376589   LinIsoHard=No   LinKinHard=No   NLIsoSaHard=No
   Material=Tendon   YieldStress=172322.365366731   LinIsoHard=No   LinKinHard=No   NLIsoSaHard=No
 
TABLE:  "MATERIAL PROPERTIES 06 - DAMPING PARAMETERS"
   Material=A706   ModalRatio=0   VisMass=0   VisStiff=0   HysMass=0   HysStiff=0
   Material=BTCT   ModalRatio=0   VisMass=0   VisStiff=0   HysMass=0   HysStiff=0
   Material=BTCTCOC   ModalRatio=0   VisMass=0   VisStiff=0   HysMass=0   HysStiff=0
   Material=Steel   ModalRatio=0   VisMass=0   VisStiff=0   HysMass=0   HysStiff=0
   Material=Tendon   ModalRatio=0   VisMass=0   VisStiff=0   HysMass=0   HysStiff=0
 
TABLE:  "MATERIAL PROPERTIES 09 - ACCEPTANCE CRITERIA"
   Material=A706   IOTens=0.01   LSTens=0.02   CPTens=0.05   IOComp=-0.005   LSComp=-0.01   CPComp=-0.02
   Material=BTCT   IOTens=0.01   LSTens=0.02   CPTens=0.05   IOComp=-0.003   LSComp=-0.006   CPComp=-0.015   IgnoreTens=Yes
   Material=BTCTCOC   IOTens=0.01   LSTens=0.02   CPTens=0.05   IOComp=-0.003   LSComp=-0.006   CPComp=-0.015   IgnoreTens=Yes
   Material=Steel   IOTens=0.01   LSTens=0.02   CPTens=0.05   IOComp=-0.005   LSComp=-0.01   CPComp=-0.02
   Material=Tendon   IOTens=0.015   LSTens=0.023   CPTens=0.03   IOComp=-0.015   LSComp=-0.023   CPComp=-0.03
 
TABLE:  "OPTIONS - COLORS - DISPLAY"
   DeviceType=Screen   Points=Blue   LinesFrame=Blue   LinesFrmDL=Blue   LinesCable=Green   LinesTendon=Green   SpringLinks=Green   Restraints=Green   Releases=Green   Axes=Cyan   Text=Black   ShadowLines=Gray8Dark   GuideLines=Gray8Dark _
        Highlight=Red   Selection=10504778   AreaFillBot=Red   AreaFillTop=16744703   AreaFillSd=Red   AreaEdge=DarkRed   SolidF1=Red   SolidF2=Blue   SolidF3=Green   SolidF4=Yellow   SolidF5=White   SolidF6=Cyan   SolidEdge=DarkRed _
        Floor=Gray4   Background=White   BGLowLeft=White   BGLowRight=White   BGUpRight=White   Darkness=0.5
   DeviceType=Printer   Points=Gray8Dark   LinesFrame=Black   LinesFrmDL=Gray4   LinesCable=Black   LinesTendon=Black   SpringLinks=Gray8Dark   Restraints=Gray8Dark   Releases=Gray4   Axes=Black   Text=Black   ShadowLines=Gray4 _
        GuideLines=Gray4   Highlight=Black   Selection=Black   AreaFillBot=Gray4   AreaFillTop=Gray8Dark   AreaFillSd=Gray4   AreaEdge=Black   SolidF1=Gray1Light   SolidF2=Gray2   SolidF3=Gray3   SolidF4=Gray4   SolidF5=Gray5 _
        SolidF6=Gray6   SolidEdge=Black   Floor=Gray4   Background=White   BGLowLeft=White   BGLowRight=White   BGUpRight=White   Darkness=0.5
   DeviceType="Color Printer"   Points=Blue   LinesFrame=Blue   LinesFrmDL=Blue   LinesCable=Green   LinesTendon=Green   SpringLinks=Green   Restraints=Green   Releases=Green   Axes=Cyan   Text=Black   ShadowLines=Gray8Dark _
        GuideLines=Gray8Dark   Highlight=Red   Selection=10504778   AreaFillBot=Red   AreaFillTop=16744703   AreaFillSd=Red   AreaEdge=DarkRed   SolidF1=Red   SolidF2=Blue   SolidF3=Green   SolidF4=Yellow   SolidF5=White   SolidF6=Cyan _
        SolidEdge=DarkRed   Floor=Gray4   Background=White   BGLowLeft=White   BGLowRight=White   BGUpRight=White   Darkness=0.5
 
TABLE:  "OPTIONS - COLORS - OUTPUT"
   DeviceType=Screen   Contour1=13107400   Contour2=6553828   Contour3=Red   Contour4=16639   Contour5=Orange   Contour6=43775   Contour7=54527   Contour8=Yellow   Contour9=65408   Contour10=Green   Contour11=8453888   Contour12=Cyan _
        Contour13=16755200   Contour14=16733440   Contour15=Blue   Transpare=0.5   Ratio1=Cyan   Ratio2=Green   Ratio3=Yellow   Ratio4=Orange   Ratio5=Red   RatioNotD=Gray4   RatioNotC=Red   RatioVal1=0.5   RatioVal2=0.7   RatioVal3=0.9 _
        RatioVal4=1   DFillPos=Blue   DFillNeg=Red   DFillRPos=Green   DFillRNeg=Green
   DeviceType=Printer   Contour1=Black   Contour2=3158064   Contour3=4210752   Contour4=5263440   Contour5=6316128   Contour6=7368816   Contour7=Gray8Dark   Contour8=Gray7   Contour9=Gray6   Contour10=Gray5   Contour11=Gray4 _
        Contour12=Gray3   Contour13=Gray2   Contour14=Gray1Light   Contour15=White   Transpare=0   Ratio1=Gray2   Ratio2=Gray4   Ratio3=Gray8Dark   Ratio4=4210752   Ratio5=Black   RatioNotD=Gray4   RatioNotC=Black   RatioVal1=0.5 _
        RatioVal2=0.7   RatioVal3=0.9   RatioVal4=1   DFillPos=Gray8Dark   DFillNeg=Gray8Dark   DFillRPos=4210752   DFillRNeg=4210752
   DeviceType="Color Printer"   Contour1=13107400   Contour2=6553828   Contour3=Red   Contour4=16639   Contour5=Orange   Contour6=43775   Contour7=54527   Contour8=Yellow   Contour9=65408   Contour10=Green   Contour11=8453888 _
        Contour12=Cyan   Contour13=16755200   Contour14=16733440   Contour15=Blue   Transpare=0   Ratio1=Cyan   Ratio2=Green   Ratio3=Yellow   Ratio4=Orange   Ratio5=Red   RatioNotD=Gray4   RatioNotC=Red   RatioVal1=0.5   RatioVal2=0.7 _
        RatioVal3=0.9   RatioVal4=1   DFillPos=Blue   DFillNeg=Red   DFillRPos=Green   DFillRNeg=Green
 
TABLE:  "OVERWRITES - CONCRETE DESIGN - CSA-A233-14"
   Frame=54748   DesignSect="Program Determined"   FrameType="Program Determined"   RLLF=0   XLMajor=0   XLMinor=0   XKMajor=0   XKMinor=0   CmMajor=0   CmMinor=0   DbMajor=0   DbMinor=0   DsMajor=0   DsMinor=0   Rd=0   Ro=0   MaxAggSize=0
   Frame=54749   DesignSect="Program Determined"   FrameType="Program Determined"   RLLF=0   XLMajor=0   XLMinor=0   XKMajor=0   XKMinor=0   CmMajor=0   CmMinor=0   DbMajor=0   DbMinor=0   DsMajor=0   DsMinor=0   Rd=0   Ro=0   MaxAggSize=0
   Frame=54750   DesignSect="Program Determined"   FrameType="Program Determined"   RLLF=0   XLMajor=0   XLMinor=0   XKMajor=0   XKMinor=0   CmMajor=0   CmMinor=0   DbMajor=0   DbMinor=0   DsMajor=0   DsMinor=0   Rd=0   Ro=0   MaxAggSize=0
   Frame=54751   DesignSect="Program Determined"   FrameType="Program Determined"   RLLF=0   XLMajor=0   XLMinor=0   XKMajor=0   XKMinor=0   CmMajor=0   CmMinor=0   DbMajor=0   DbMinor=0   DsMajor=0   DsMinor=0   Rd=0   Ro=0   MaxAggSize=0
   Frame=54752   DesignSect="Program Determined"   FrameType="Program Determined"   RLLF=0   XLMajor=0   XLMinor=0   XKMajor=0   XKMinor=0   CmMajor=0   CmMinor=0   DbMajor=0   DbMinor=0   DsMajor=0   DsMinor=0   Rd=0   Ro=0   MaxAggSize=0
   Frame=54753   DesignSect="Program Determined"   FrameType="Program Determined"   RLLF=0   XLMajor=0   XLMinor=0   XKMajor=0   XKMinor=0   CmMajor=0   CmMinor=0   DbMajor=0   DbMinor=0   DsMajor=0   DsMinor=0   Rd=0   Ro=0   MaxAggSize=0
   Frame=54754   DesignSect="Program Determined"   FrameType="Program Determined"   RLLF=0   XLMajor=0   XLMinor=0   XKMajor=0   XKMinor=0   CmMajor=0   CmMinor=0   DbMajor=0   DbMinor=0   DsMajor=0   DsMinor=0   Rd=0   Ro=0   MaxAggSize=0
   Frame=54755   DesignSect="Program Determined"   FrameType="Program Determined"   RLLF=0   XLMajor=0   XLMinor=0   XKMajor=0   XKMinor=0   CmMajor=0   CmMinor=0   DbMajor=0   DbMinor=0   DsMajor=0   DsMinor=0   Rd=0   Ro=0   MaxAggSize=0
   Frame=54756   DesignSect="Program Determined"   FrameType="Program Determined"   RLLF=0   XLMajor=0   XLMinor=0   XKMajor=0   XKMinor=0   CmMajor=0   CmMinor=0   DbMajor=0   DbMinor=0   DsMajor=0   DsMinor=0   Rd=0   Ro=0   MaxAggSize=0
   Frame=54757   DesignSect="Program Determined"   FrameType="Program Determined"   RLLF=0   XLMajor=0   XLMinor=0   XKMajor=0   XKMinor=0   CmMajor=0   CmMinor=0   DbMajor=0   DbMinor=0   DsMajor=0   DsMinor=0   Rd=0   Ro=0   MaxAggSize=0
   Frame=54758   DesignSect="Program Determined"   FrameType="Program Determined"   RLLF=0   XLMajor=0   XLMinor=0   XKMajor=0   XKMinor=0   CmMajor=0   CmMinor=0   DbMajor=0   DbMinor=0   DsMajor=0   DsMinor=0   Rd=0   Ro=0   MaxAggSize=0
   Frame=54759   DesignSect="Program Determined"   FrameType="Program Determined"   RLLF=0   XLMajor=0   XLMinor=0   XKMajor=0   XKMinor=0   CmMajor=0   CmMinor=0   DbMajor=0   DbMinor=0   DsMajor=0   DsMinor=0   Rd=0   Ro=0   MaxAggSize=0
   Frame=54760   DesignSect="Program Determined"   FrameType="Program Determined"   RLLF=0   XLMajor=0   XLMinor=0   XKMajor=0   XKMinor=0   CmMajor=0   CmMinor=0   DbMajor=0   DbMinor=0   DsMajor=0   DsMinor=0   Rd=0   Ro=0   MaxAggSize=0
   Frame=54761   DesignSect="Program Determined"   FrameType="Program Determined"   RLLF=0   XLMajor=0   XLMinor=0   XKMajor=0   XKMinor=0   CmMajor=0   CmMinor=0   DbMajor=0   DbMinor=0   DsMajor=0   DsMinor=0   Rd=0   Ro=0   MaxAggSize=0
   Frame=54762   DesignSect="Program Determined"   FrameType="Program Determined"   RLLF=0   XLMajor=0   XLMinor=0   XKMajor=0   XKMinor=0   CmMajor=0   CmMinor=0   DbMajor=0   DbMinor=0   DsMajor=0   DsMinor=0   Rd=0   Ro=0   MaxAggSize=0
   Frame=54763   DesignSect="Program Determined"   FrameType="Program Determined"   RLLF=0   XLMajor=0   XLMinor=0   XKMajor=0   XKMinor=0   CmMajor=0   CmMinor=0   DbMajor=0   DbMinor=0   DsMajor=0   DsMinor=0   Rd=0   Ro=0   MaxAggSize=0
   Frame=54764   DesignSect="Program Determined"   FrameType="Program Determined"   RLLF=0   XLMajor=0   XLMinor=0   XKMajor=0   XKMinor=0   CmMajor=0   CmMinor=0   DbMajor=0   DbMinor=0   DsMajor=0   DsMinor=0   Rd=0   Ro=0   MaxAggSize=0
   Frame=54765   DesignSect="Program Determined"   FrameType="Program Determined"   RLLF=0   XLMajor=0   XLMinor=0   XKMajor=0   XKMinor=0   CmMajor=0   CmMinor=0   DbMajor=0   DbMinor=0   DsMajor=0   DsMinor=0   Rd=0   Ro=0   MaxAggSize=0
   Frame=54766   DesignSect="Program Determined"   FrameType="Program Determined"   RLLF=0   XLMajor=0   XLMinor=0   XKMajor=0   XKMinor=0   CmMajor=0   CmMinor=0   DbMajor=0   DbMinor=0   DsMajor=0   DsMinor=0   Rd=0   Ro=0   MaxAggSize=0
   Frame=54767   DesignSect="Program Determined"   FrameType="Program Determined"   RLLF=0   XLMajor=0   XLMinor=0   XKMajor=0   XKMinor=0   CmMajor=0   CmMinor=0   DbMajor=0   DbMinor=0   DsMajor=0   DsMinor=0   Rd=0   Ro=0   MaxAggSize=0
# ... 23 like lines cut
 
TABLE:  "PREFERENCES - ALUMINUM DESIGN - AA 2015"
   THDesign=Envelopes   SRatioLimit=1   Provision=ASD   LatFact=1.33333333333333   UseLatFact=No   Bridge=No   OmegaTy=1.65   OmegaTr=1.95   OmegaC=1.65   OmegaBo=1.65   OmegaBr=1.95   OmegaVo=1.65   OmegaVr=1.95
 
TABLE:  "PREFERENCES - COLD FORMED DESIGN - AISI-ASD96"
   THDesign=Envelopes   FrameType="Braced Frame"   SRatioLimit=1   MaxIter=1   OmegaBS=1.67   OmegaBUS=1.67   OmegaBLTB=1.67   OmegaVS=1.67   OmegaVNS=1.5   OmegaT=1.67   OmegaC=1.8
 
TABLE:  "PREFERENCES - CONCRETE DESIGN - CSA-A233-14"
   THDesign=Envelopes   NumCurves=24   NumPoints=11   MinEccen=Yes   BCCDesign=Yes   CTorsion=Yes   PatLLF=0.75   UFLimit=0.95   PhiS=0.85   PhiC=0.65
 
TABLE:  "PREFERENCES - CONCRETE SHELL DESIGN - EUROCODE 2-2004"
   Country="CEN Default"   GammaS=1.15   GammaC=1.5   AlphaCC=1
 
TABLE:  "PREFERENCES - DIMENSIONAL"
   MergeTol=0.001   FineGrid=0.25   Nudge=0.25   SelectTol=3   SnapTol=12   SLineThick=1   PLineThick=4   MaxFont=8   MinFont=3   AutoZoom=10   ShrinkFact=70   TextFileLen=240
 
TABLE:  "PREFERENCES - STEEL DESIGN - AISC 360-10"
   THDesign=Envelopes   FrameType=SMF   PatLLF=0.75   SRatioLimit=0.95   MaxIter=1   SDC=D   SeisCode=No   SeisLoad=No   ImpFactor=1   SystemRho=1   SystemSds=0.5   SystemR=8   SystemCd=5.5   Omega0=3   Provision=LRFD _
        AMethod="Direct Analysis"   SOMethod="General 2nd Order"   SRMethod="Tau-b Fixed"   NLCoeff=0.002   PhiB=0.9   PhiC=0.9   PhiTY=0.9   PhiTF=0.75   PhiV=0.9   PhiVRolledI=1   PhiVT=0.9   PlugWeld=Yes   HSSWelding=ERW   HSSReduceT=No _
        CheckDefl=No   DLRat=120   SDLAndLLRat=120   LLRat=360   TotalRat=240   NetRat=240
 
TABLE:  "PROGRAM CONTROL"
   ProgramName=SAP2000   Version=24.0.0   CurrUnits="Tonf, m, C"   SteelCode="AISC 360-10"   ConcCode="CSA A23.3-14"   AlumCode="AA 2015"   ColdCode=AISI-ASD96   RegenHinge=Yes
 
TABLE:  "PROJECT INFORMATION"
   Item="Company Name"   Data=po
   Item="Client Name"
   Item="Project Name"
   Item="Project Number"
   Item="Model Name"
   Item="Model Description"
   Item="Revision Number"
   Item="Frame Type"
   Item=Engineer
   Item=Checker
   Item=Supervisor
   Item="Issue Code"
   Item="Design Code"
 
TABLE:  "REBAR SIZES"
   RebarID=#2   Area=3.2258E-05   Diameter=0.00635
   RebarID=#3   Area=7.09675996154547E-05   Diameter=0.009525
   RebarID=#4   Area=0.000129032001922727   Diameter=0.0127
   RebarID=#5   Area=0.000199999601538181   Diameter=0.015875
   RebarID=#6   Area=0.000283870398461819   Diameter=0.01905
   RebarID=#7   Area=0.000387096015381813   Diameter=0.022225
   RebarID=#8   Area=0.000509676413843632   Diameter=0.0254
   RebarID=#9   Area=0.00064516   Diameter=0.0286512005329132
   RebarID=#10   Area=0.00081935318769455   Diameter=0.0322579995155334
   RebarID=#11   Area=0.00100644956308365   Diameter=0.0358139991521835
   RebarID=#14   Area=0.00145161   Diameter=0.0430021989583969
   RebarID=#18   Area=0.00258064   Diameter=0.0573277992248535
   RebarID=10M   Area=0.000100000004162606   Diameter=0.0113000003604438
   RebarID=15M   Area=0.000200000008325212   Diameter=0.0160000002402959
   RebarID=20M   Area=0.000300000012487818   Diameter=0.0195000002928606
   RebarID=25M   Area=0.000500000020813031   Diameter=0.0252000011414055
   RebarID=30M   Area=0.000700000029138243   Diameter=0.0299000000675832
   RebarID=35M   Area=0.00100000004162606   Diameter=0.0357000012990997
   RebarID=45M   Area=0.00150000006243909   Diameter=0.0437000014192476
   RebarID=55M   Area=0.00250000010406515   Diameter=0.056400002372922
   RebarID=6d   Area=2.83000004150781E-05   Diameter=0.00600000009011096
   RebarID=8d   Area=5.03000013308514E-05   Diameter=0.00800000012014795
   RebarID=10d   Area=7.85000032676458E-05   Diameter=0.0100000001501849
   RebarID=12d   Area=0.000113000004703745   Diameter=0.0120000001802219
   RebarID=14d   Area=0.000154000006410413   Diameter=0.0140000002102589
   RebarID=16d   Area=0.000201000008366838   Diameter=0.0160000002402959
   RebarID=20d   Area=0.000314000013070583   Diameter=0.0200000003003699
   RebarID=25d   Area=0.000491000020438396   Diameter=0.0250000003754623
   RebarID=26d   Area=0.000531000022103439   Diameter=0.0260000003904808
   RebarID=28d   Area=0.000616000025641654   Diameter=0.0280000004205178
   RebarID=N12   Area=0.000113000004703745   Diameter=0.0120000001802219
   RebarID=N16   Area=0.000201000008366838   Diameter=0.0160000002402959
   RebarID=N20   Area=0.000314000013070583   Diameter=0.0200000003003699
   RebarID=N24   Area=0.00045200001881498   Diameter=0.0240000003604438
   RebarID=N28   Area=0.000616000025641654   Diameter=0.0280000004205178
   RebarID=N32   Area=0.000804000033467353   Diameter=0.0320000004805918
   RebarID=N36   Area=0.00102000004245858   Diameter=0.0360000005406658
 
TABLE:  "SOLID PROPERTY DEFINITIONS"
   SolidProp=Solid1   Material=BTCT   MatAngleA=0   MatAngleB=0   MatAngleC=0   InComp=Yes   Color=Gray8Dark
 
END TABLE DATA
