File D:\ResearchLab\02_Projects\02_Projects\Tap chi XD_SFOA\code\SOO_MPJ\MPJ_Sap\SOO_Cost_W07\MPJ_7.$2k was saved on m/d/yy at h:mm:ss
 
TABLE:  "ACTIVE DEGREES OF FREEDOM"
   UX=Yes   UY=Yes   UZ=Yes   RX=Yes   RY=Yes   RZ=Yes
 
TABLE:  "ANALYSIS OPTIONS"
   Solver=Advanced   SolverProc=Auto   Force32Bit=No   StiffCase=None   GeomMod=None   HingeOpt="In Elements"   NumAThreads=0   MaxFileSize=0   NumDThreads=0   NumRThreads=0   UseMMFiles="Program Determined"   AllowDiff=No
 
TABLE:  "AREA AUTO MESH ASSIGNMENTS"
   Area=229177   MeshType="Number of Elements"   MeshGroup=ALL   Number1=3   Number2=3   LocalEdge=No   LocalFace=No   SuppEdge=No   SuppFace=No   SubMesh=No
   Area=229178   MeshType="Number of Elements"   MeshGroup=ALL   Number1=3   Number2=3   LocalEdge=No   LocalFace=No   SuppEdge=No   SuppFace=No   SubMesh=No
   Area=229179   MeshType="Number of Elements"   MeshGroup=ALL   Number1=3   Number2=3   LocalEdge=No   LocalFace=No   SuppEdge=No   SuppFace=No   SubMesh=No
   Area=229180   MeshType="Number of Elements"   MeshGroup=ALL   Number1=3   Number2=3   LocalEdge=No   LocalFace=No   SuppEdge=No   SuppFace=No   SubMesh=No
   Area=229181   MeshType="Number of Elements"   MeshGroup=ALL   Number1=3   Number2=3   LocalEdge=No   LocalFace=No   SuppEdge=No   SuppFace=No   SubMesh=No
   Area=229182   MeshType="Number of Elements"   MeshGroup=ALL   Number1=3   Number2=3   LocalEdge=No   LocalFace=No   SuppEdge=No   SuppFace=No   SubMesh=No
   Area=229183   MeshType="Number of Elements"   MeshGroup=ALL   Number1=3   Number2=3   LocalEdge=No   LocalFace=No   SuppEdge=No   SuppFace=No   SubMesh=No
   Area=229184   MeshType="Number of Elements"   MeshGroup=ALL   Number1=3   Number2=3   LocalEdge=No   LocalFace=No   SuppEdge=No   SuppFace=No   SubMesh=No
   Area=229185   MeshType="Number of Elements"   MeshGroup=ALL   Number1=3   Number2=3   LocalEdge=No   LocalFace=No   SuppEdge=No   SuppFace=No   SubMesh=No
   Area=229186   MeshType="Number of Elements"   MeshGroup=ALL   Number1=3   Number2=3   LocalEdge=No   LocalFace=No   SuppEdge=No   SuppFace=No   SubMesh=No
   Area=229187   MeshType="Number of Elements"   MeshGroup=ALL   Number1=3   Number2=3   LocalEdge=No   LocalFace=No   SuppEdge=No   SuppFace=No   SubMesh=No
   Area=229188   MeshType="Number of Elements"   MeshGroup=ALL   Number1=3   Number2=3   LocalEdge=No   LocalFace=No   SuppEdge=No   SuppFace=No   SubMesh=No
   Area=229189   MeshType="Number of Elements"   MeshGroup=ALL   Number1=3   Number2=3   LocalEdge=No   LocalFace=No   SuppEdge=No   SuppFace=No   SubMesh=No
   Area=229190   MeshType="Number of Elements"   MeshGroup=ALL   Number1=3   Number2=3   LocalEdge=No   LocalFace=No   SuppEdge=No   SuppFace=No   SubMesh=No
   Area=229191   MeshType="Number of Elements"   MeshGroup=ALL   Number1=3   Number2=3   LocalEdge=No   LocalFace=No   SuppEdge=No   SuppFace=No   SubMesh=No
   Area=229192   MeshType="Number of Elements"   MeshGroup=ALL   Number1=3   Number2=3   LocalEdge=No   LocalFace=No   SuppEdge=No   SuppFace=No   SubMesh=No
   Area=229193   MeshType="Number of Elements"   MeshGroup=ALL   Number1=3   Number2=3   LocalEdge=No   LocalFace=No   SuppEdge=No   SuppFace=No   SubMesh=No
   Area=229194   MeshType="Number of Elements"   MeshGroup=ALL   Number1=3   Number2=3   LocalEdge=No   LocalFace=No   SuppEdge=No   SuppFace=No   SubMesh=No
   Area=229195   MeshType="Number of Elements"   MeshGroup=ALL   Number1=3   Number2=3   LocalEdge=No   LocalFace=No   SuppEdge=No   SuppFace=No   SubMesh=No
   Area=229196   MeshType="Number of Elements"   MeshGroup=ALL   Number1=3   Number2=3   LocalEdge=No   LocalFace=No   SuppEdge=No   SuppFace=No   SubMesh=No
# ... 4 like lines cut
 
TABLE:  "AREA LOADS - UNIFORM"
   Area=229177   LoadPat=LL   CoordSys=GLOBAL   Dir=Gravity   UnifLoad=1.00034158457019
   Area=229178   LoadPat=LL   CoordSys=GLOBAL   Dir=Gravity   UnifLoad=1.00034158457019
   Area=229179   LoadPat=LL   CoordSys=GLOBAL   Dir=Gravity   UnifLoad=1.00034158457019
   Area=229180   LoadPat=LL   CoordSys=GLOBAL   Dir=Gravity   UnifLoad=1.00034158457019
   Area=229181   LoadPat=LL   CoordSys=GLOBAL   Dir=Gravity   UnifLoad=1.00034158457019
   Area=229182   LoadPat=LL   CoordSys=GLOBAL   Dir=Gravity   UnifLoad=1.00034158457019
   Area=229183   LoadPat=LL   CoordSys=GLOBAL   Dir=Gravity   UnifLoad=1.00034158457019
   Area=229184   LoadPat=LL   CoordSys=GLOBAL   Dir=Gravity   UnifLoad=1.00034158457019
   Area=229185   LoadPat=LL   CoordSys=GLOBAL   Dir=Gravity   UnifLoad=1.00034158457019
   Area=229186   LoadPat=LL   CoordSys=GLOBAL   Dir=Gravity   UnifLoad=1.00034158457019
   Area=229187   LoadPat=LL   CoordSys=GLOBAL   Dir=Gravity   UnifLoad=1.00034158457019
   Area=229188   LoadPat=LL   CoordSys=GLOBAL   Dir=Gravity   UnifLoad=1.00034158457019
   Area=229189   LoadPat=LL   CoordSys=GLOBAL   Dir=Gravity   UnifLoad=1.00034158457019
   Area=229190   LoadPat=LL   CoordSys=GLOBAL   Dir=Gravity   UnifLoad=1.00034158457019
   Area=229191   LoadPat=LL   CoordSys=GLOBAL   Dir=Gravity   UnifLoad=1.00034158457019
   Area=229192   LoadPat=LL   CoordSys=GLOBAL   Dir=Gravity   UnifLoad=1.00034158457019
   Area=229193   LoadPat=LL   CoordSys=GLOBAL   Dir=Gravity   UnifLoad=1.00034158457019
   Area=229194   LoadPat=LL   CoordSys=GLOBAL   Dir=Gravity   UnifLoad=1.00034158457019
   Area=229195   LoadPat=LL   CoordSys=GLOBAL   Dir=Gravity   UnifLoad=1.00034158457019
   Area=229196   LoadPat=LL   CoordSys=GLOBAL   Dir=Gravity   UnifLoad=1.00034158457019
# ... 4 like lines cut
 
TABLE:  "AREA SECTION ASSIGNMENTS"
   Area=229177   Section=Deck   MatProp=Default
   Area=229178   Section=Deck   MatProp=Default
   Area=229179   Section=Deck   MatProp=Default
   Area=229180   Section=Deck   MatProp=Default
   Area=229181   Section=Deck   MatProp=Default
   Area=229182   Section=Deck   MatProp=Default
   Area=229183   Section=Deck   MatProp=Default
   Area=229184   Section=Deck   MatProp=Default
   Area=229185   Section=Deck   MatProp=Default
   Area=229186   Section=Deck   MatProp=Default
   Area=229187   Section=Deck   MatProp=Default
   Area=229188   Section=Deck   MatProp=Default
   Area=229189   Section=Deck   MatProp=Default
   Area=229190   Section=Deck   MatProp=Default
   Area=229191   Section=Deck   MatProp=Default
   Area=229192   Section=Deck   MatProp=Default
   Area=229193   Section=Deck   MatProp=Default
   Area=229194   Section=Deck   MatProp=Default
   Area=229195   Section=Deck   MatProp=Default
   Area=229196   Section=Deck   MatProp=Default
# ... 4 like lines cut
 
TABLE:  "AREA SECTION PROPERTIES"
   Section=Deck   Material=BTCT   MatAngle=0   AreaType=Shell   Type=Shell-Thin   DrillDOF=Yes   Thickness=0.3   BendThick=0.3   Color=Green   F11Mod=1   F22Mod=1   F12Mod=1   M11Mod=1   M22Mod=1   M12Mod=1   V13Mod=1   V23Mod=1   MMod=1 _
        WMod=1   Notes="Added 24-Feb-23 16:56:47"
 
TABLE:  "AREA SECTION PROPERTY DESIGN PARAMETERS"
   Section=Deck   RebarMat=None   RebarOpt=Default
 
TABLE:  "AREA SECTION PROPERTY - TIME DEPENDENT"
   Section=Deck   TypeSize=User   AutoSFSize=1   UserValSize=0.1
 
TABLE:  "AUTO COMBINATION OPTION DATA 01 - GENERAL"
   DesignType=Concrete   AutoGen=Yes
 
TABLE:  "AUTO COMBINATION OPTION DATA 02 - USER DATA"
   DesignType=Concrete   LSType=Strength   LCName=DEAD
   DesignType=Concrete   LSType=Strength   LCName=LL
 
TABLE:  "AUTO WAVE 3 - WAVE CHARACTERISTICS - GENERAL"
   WaveChar=Default   WaveType="From Theory"   KinFactor=1   SWaterDepth=45   WaveHeight=18   WavePeriod=12   WaveTheory=Linear
 
TABLE:  "CASE - MODAL 1 - GENERAL"
   Case=MODAL   ModeType=Eigen   MaxNumModes=12   MinNumModes=1   EigenShift=0   EigenCutoff=0   EigenTol=1E-09   AutoShift=Yes
 
TABLE:  "CASE - STATIC 1 - LOAD ASSIGNMENTS"
   Case=DEAD   LoadType="Load pattern"   LoadName=DEAD   LoadSF=1
   Case=LL   LoadType="Load pattern"   LoadName=LL   LoadSF=1
 
TABLE:  "COMBINATION DEFINITIONS"
   ComboName=COMB1   ComboType="Linear Add"   AutoDesign=No   CaseName=DEAD   ScaleFactor=1   SteelDesign=None   ConcDesign=Strength   AlumDesign=None   ColdDesign=None
   ComboName=COMB2   ComboType="Linear Add"   AutoDesign=No   CaseName=DEAD   ScaleFactor=1   SteelDesign=None   ConcDesign=Strength   AlumDesign=None   ColdDesign=None
   ComboName=COMB2   CaseName=LL   ScaleFactor=1
   ComboName=BAO   ComboType=Envelope   AutoDesign=No   CaseName=COMB1   ScaleFactor=1   SteelDesign=None   ConcDesign=Strength   AlumDesign=None   ColdDesign=None
   ComboName=BAO   CaseName=COMB2   ScaleFactor=1
   ComboName=DCON1   ComboType="Linear Add"   AutoDesign=Yes   CaseName=DEAD   ScaleFactor=1.4   SteelDesign=None   ConcDesign=Strength   AlumDesign=None   ColdDesign=None   GUID=bb4fff9a-98b5-44d1-9fde-34d92700a8e9   Notes="Dead Only; Strength"
   ComboName=DCON2   ComboType="Linear Add"   AutoDesign=Yes   CaseName=DEAD   ScaleFactor=1.25   SteelDesign=None   ConcDesign=Strength   AlumDesign=None   ColdDesign=None   GUID=505bcda7-6fac-4dd0-b03e-c591d1ffc6ce   Notes="Dead + Live; Strength"
   ComboName=DCON2   CaseName=LL   ScaleFactor=1.5
 
TABLE:  "CONNECTIVITY - AREA"
   Area=229177   Joint1=670669   Joint2=670630   Joint3=670603   Joint4=670602   GUID=1d94b256-3f03-4ae5-a1e0-0b2469dcba89
   Area=229178   Joint1=670602   Joint2=670603   Joint3=670605   Joint4=670604   GUID=31d76268-7b49-4fa4-96fa-990a04c8b9c4
   Area=229179   Joint1=670604   Joint2=670605   Joint3=670607   Joint4=670606   GUID=75f6e5af-91cb-4ee5-939f-762b4e674aa6
   Area=229180   Joint1=670606   Joint2=670607   Joint3=670609   Joint4=670608   GUID=83c3c125-3e73-431c-83c3-e2c5a21f0e80
   Area=229181   Joint1=670608   Joint2=670609   Joint3=670611   Joint4=670610   GUID=7356cb77-3b3b-4edb-a160-80e65a51ef0b
   Area=229182   Joint1=670610   Joint2=670611   Joint3=670613   Joint4=670612   GUID=d8f7de24-cdfc-4970-955e-600e6ba226ff
   Area=229183   Joint1=670612   Joint2=670613   Joint3=670615   Joint4=670614   GUID=28b3b767-e1db-46e1-8f4d-55c0b9756948
   Area=229184   Joint1=670614   Joint2=670615   Joint3=670632   Joint4=670670   GUID=f2fa6642-9f1b-423a-ba90-00e3e4bee084
   Area=229185   Joint1=670630   Joint2=670631   Joint3=670616   Joint4=670603   GUID=77c9bf83-6381-46d4-9316-949e75382bff
   Area=229186   Joint1=670603   Joint2=670616   Joint3=670617   Joint4=670605   GUID=b4b9467c-1b83-46f0-be51-4543d8d16354
   Area=229187   Joint1=670605   Joint2=670617   Joint3=670618   Joint4=670607   GUID=56514810-c103-4000-98f1-ba7147326fd9
   Area=229188   Joint1=670607   Joint2=670618   Joint3=670619   Joint4=670609   GUID=957248d3-8229-4c78-8ba2-d143bc078e40
   Area=229189   Joint1=670609   Joint2=670619   Joint3=670620   Joint4=670611   GUID=57dd5ea9-cf85-4c25-9be3-555b2ba44d4e
   Area=229190   Joint1=670611   Joint2=670620   Joint3=670621   Joint4=670613   GUID=f4ffc90d-1fcb-4d55-8772-566ffe75c29e
   Area=229191   Joint1=670613   Joint2=670621   Joint3=670622   Joint4=670615   GUID=9f67f449-8145-4c0f-a193-950b03a0b104
   Area=229192   Joint1=670615   Joint2=670622   Joint3=670633   Joint4=670632   GUID=d7fb195e-4124-42a8-aee5-1e1b9828e683
   Area=229193   Joint1=670631   Joint2=670671   Joint3=670623   Joint4=670616   GUID=d64f832a-1e6d-4ac8-88d5-7822aab876fd
   Area=229194   Joint1=670616   Joint2=670623   Joint3=670624   Joint4=670617   GUID=c042c217-03e6-497a-ae74-e7eaaab4f1a1
   Area=229195   Joint1=670617   Joint2=670624   Joint3=670625   Joint4=670618   GUID=97547d5c-e3d7-412d-a5f1-0249166f2d37
   Area=229196   Joint1=670618   Joint2=670625   Joint3=670626   Joint4=670619   GUID=140ab743-6f73-4f70-94c9-77cbbfb78f55
   Area=229197   Joint1=670619   Joint2=670626   Joint3=670627   Joint4=670620   GUID=99562e66-e508-4b1d-a59a-0dc7946fc277
   Area=229198   Joint1=670620   Joint2=670627   Joint3=670628   Joint4=670621   GUID=191555c4-5936-4f95-8a6d-eb02192b7863
   Area=229199   Joint1=670621   Joint2=670628   Joint3=670629   Joint4=670622   GUID=dae48b05-5f89-4ca0-82df-9ab7da0561b0
   Area=229200   Joint1=670622   Joint2=670629   Joint3=670672   Joint4=670633   GUID=a264152f-bfe5-42b4-8851-5b216c46c05a
 
TABLE:  "CONNECTIVITY - FRAME"
   Frame=751195   JointI=670602   JointJ=670603   IsCurved=No   GUID=592b5399-78d8-482e-91b0-afbb3006f361
   Frame=751196   JointI=670604   JointJ=670605   IsCurved=No   GUID=99b8088c-41a8-4e1e-a98b-38373af52064
   Frame=751197   JointI=670606   JointJ=670607   IsCurved=No   GUID=fff7623b-7bcc-4783-a5aa-c96b2a06683f
   Frame=751198   JointI=670608   JointJ=670609   IsCurved=No   GUID=c6cec794-22f3-4fe0-9eb6-9a727945fa1a
   Frame=751199   JointI=670610   JointJ=670611   IsCurved=No   GUID=353ec992-b1ba-44a1-9584-25e90f54d6d6
   Frame=751200   JointI=670612   JointJ=670613   IsCurved=No   GUID=43775c3a-dfff-4fb6-bfcd-bb69de6be7e3
   Frame=751201   JointI=670614   JointJ=670615   IsCurved=No   GUID=1ca294cb-e3d2-4242-889b-9968d4eb7497
   Frame=751202   JointI=670603   JointJ=670616   IsCurved=No   GUID=4a878cb8-26f6-49a5-b9f3-c335d31843ef
   Frame=751203   JointI=670605   JointJ=670617   IsCurved=No   GUID=ad1856b8-9d44-4ba7-81a3-d277ad276c82
   Frame=751204   JointI=670607   JointJ=670618   IsCurved=No   GUID=a84093f0-fe79-4cb9-8ad8-b7fe9dcb0435
   Frame=751205   JointI=670609   JointJ=670619   IsCurved=No   GUID=a8ee413b-a4b7-46e2-a656-2f04bb06aee9
   Frame=751206   JointI=670611   JointJ=670620   IsCurved=No   GUID=ea0f0c85-fb07-474f-b759-9014f8333eea
   Frame=751207   JointI=670613   JointJ=670621   IsCurved=No   GUID=579d3013-cfd0-495f-bd67-38b19c5327c1
   Frame=751208   JointI=670615   JointJ=670622   IsCurved=No   GUID=43873cd5-3e4c-4c62-a0e5-9c25f8c683dc
   Frame=751209   JointI=670616   JointJ=670623   IsCurved=No   GUID=f26b673c-5517-4e96-88cd-a6d95902c25f
   Frame=751210   JointI=670617   JointJ=670624   IsCurved=No   GUID=7d3f706f-3094-4854-83a6-cd85dc450d55
   Frame=751211   JointI=670618   JointJ=670625   IsCurved=No   GUID=b56941d0-3952-4c08-a7d1-65041b6a87f3
   Frame=751212   JointI=670619   JointJ=670626   IsCurved=No   GUID=75af89ca-1f25-46fa-b5e2-8a470138844a
   Frame=751213   JointI=670620   JointJ=670627   IsCurved=No   GUID=b1aeb326-8594-42db-8883-3aa4e55679b9
   Frame=751214   JointI=670621   JointJ=670628   IsCurved=No   GUID=8820d030-031d-4320-bbc7-f6c131c080c8
   Frame=751215   JointI=670622   JointJ=670629   IsCurved=No   GUID=91cd337f-2a45-4405-8573-05be0a9bf09a
   Frame=751216   JointI=670630   JointJ=670603   IsCurved=No   GUID=99cb29fe-76c3-468c-8772-3e19ea45bd1b
   Frame=751217   JointI=670631   JointJ=670616   IsCurved=No   GUID=b287a1ec-6f27-4681-b073-e7cc6999a928
   Frame=751218   JointI=670603   JointJ=670605   IsCurved=No   GUID=1f5213ea-9f34-4823-8c96-fcbceeb87bf2
   Frame=751219   JointI=670616   JointJ=670617   IsCurved=No   GUID=68da1bc1-24cf-4c38-b322-64b21002603d
   Frame=751220   JointI=670605   JointJ=670607   IsCurved=No   GUID=759a0f88-22a8-4c9d-b432-6261c9d27f5f
   Frame=751221   JointI=670617   JointJ=670618   IsCurved=No   GUID=a51806b1-8e54-47cf-b465-2079e119748d
   Frame=751222   JointI=670607   JointJ=670609   IsCurved=No   GUID=fa8919b7-60de-4753-95e2-6d7bfad2eb2f
   Frame=751223   JointI=670618   JointJ=670619   IsCurved=No   GUID=48af2b86-c8bb-40e9-8981-06c82236dd5d
   Frame=751224   JointI=670609   JointJ=670611   IsCurved=No   GUID=7fb794e3-c9a3-483e-af84-ddf9a2dc01f4
   Frame=751225   JointI=670619   JointJ=670620   IsCurved=No   GUID=a601f1bf-a6b0-4614-b716-3b1a05ba4dc7
   Frame=751226   JointI=670611   JointJ=670613   IsCurved=No   GUID=c0be0afe-2fa3-42c4-b3c6-d2102e6dbc83
   Frame=751227   JointI=670620   JointJ=670621   IsCurved=No   GUID=2fc12b27-022d-4bc4-9b3e-60831592a601
   Frame=751228   JointI=670613   JointJ=670615   IsCurved=No   GUID=807d2c3f-9702-4665-aae1-937d8597d9e1
   Frame=751229   JointI=670621   JointJ=670622   IsCurved=No   GUID=3f6170d3-b8a2-4028-bf97-c0b222a27125
   Frame=751230   JointI=670615   JointJ=670632   IsCurved=No   GUID=7421a0c1-b92f-433d-b771-1abbd4e3d985
   Frame=751231   JointI=670622   JointJ=670633   IsCurved=No   GUID=5bdde1c5-2e6f-4d9c-9006-a4ca6ce18f74
   Frame=751232   JointI=670603   JointJ=670634   IsCurved=No   GUID=11a332c2-e201-4c15-b2d3-89c393112059
   Frame=751233   JointI=670634   JointJ=670635   IsCurved=No   GUID=2b34a4ef-72ca-415e-aeda-c2da2cd27cf4
   Frame=751234   JointI=670635   JointJ=670636   IsCurved=No   GUID=20b211fa-dbca-495d-a8cc-6756fa0dc8e6
   Frame=751235   JointI=670605   JointJ=670637   IsCurved=No   GUID=066f5b97-9096-4ead-a219-ddd8e41b0f9c
   Frame=751236   JointI=670637   JointJ=670638   IsCurved=No   GUID=ec918018-a159-4eff-ba98-6ae3d91d19b7
   Frame=751237   JointI=670638   JointJ=670639   IsCurved=No   GUID=b0b4bb98-4194-467c-b508-ab1dee791871
   Frame=751238   JointI=670607   JointJ=670640   IsCurved=No   GUID=f0e5db8e-6f22-4f30-a6cd-80cf76d18ce0
   Frame=751239   JointI=670640   JointJ=670641   IsCurved=No   GUID=a585ce01-4e39-46ce-8a02-170b59a1cbb0
   Frame=751240   JointI=670641   JointJ=670642   IsCurved=No   GUID=29357223-6471-4555-9f86-cfa179593d4e
   Frame=751241   JointI=670609   JointJ=670643   IsCurved=No   GUID=e97eef15-d411-4721-b7cc-587e6cb39ce5
   Frame=751242   JointI=670643   JointJ=670644   IsCurved=No   GUID=f27738be-0a30-4114-b7ce-a1fa3575969a
   Frame=751243   JointI=670644   JointJ=670645   IsCurved=No   GUID=9d023ff4-3f8b-47c1-96a9-d5cb93dcbe4a
   Frame=751244   JointI=670611   JointJ=670646   IsCurved=No   GUID=f015f716-95ed-4229-ace4-a5a70d1c03e2
   Frame=751245   JointI=670646   JointJ=670647   IsCurved=No   GUID=fa407856-ced0-4188-b2d2-360cdb89b402
   Frame=751246   JointI=670647   JointJ=670648   IsCurved=No   GUID=f5548feb-dd48-46ed-92b4-f5768b04cca4
   Frame=751247   JointI=670613   JointJ=670649   IsCurved=No   GUID=623b43d6-967b-4879-9135-dd19a23c074b
   Frame=751248   JointI=670649   JointJ=670650   IsCurved=No   GUID=d74f21bf-3d29-412a-9c66-4c7c9a1e68a8
   Frame=751249   JointI=670650   JointJ=670651   IsCurved=No   GUID=0c66987b-2737-4bbf-8d4e-d39dbd76e509
   Frame=751250   JointI=670615   JointJ=670652   IsCurved=No   GUID=332d5f19-40a2-4955-9cd1-30d31275810f
   Frame=751251   JointI=670652   JointJ=670653   IsCurved=No   GUID=b4318349-0558-4b2d-9d07-1f81eb588878
   Frame=751252   JointI=670653   JointJ=670654   IsCurved=No   GUID=0793070e-99a0-4d3f-9a6a-f445082b3414
   Frame=751253   JointI=670616   JointJ=670655   IsCurved=No   GUID=2f1093bd-81c3-43c0-9b94-bc9025b756cd
   Frame=751254   JointI=670655   JointJ=670656   IsCurved=No   GUID=b5b20fb5-85ba-481b-a7d7-919fb89cb9a2
   Frame=751255   JointI=670617   JointJ=670657   IsCurved=No   GUID=c729a57d-ea2f-4d74-8091-294952dc8c9f
   Frame=751256   JointI=670657   JointJ=670658   IsCurved=No   GUID=b7d71de7-de39-488c-b044-4f730f328ad7
   Frame=751257   JointI=670618   JointJ=670659   IsCurved=No   GUID=f7d7e93c-5122-43a1-b2da-f77914104edf
   Frame=751258   JointI=670659   JointJ=670660   IsCurved=No   GUID=a745fc83-aa1f-4a69-968b-672dcb94dc2f
   Frame=751259   JointI=670619   JointJ=670661   IsCurved=No   GUID=cbd79e89-a888-494a-94e6-4035c5637f8f
   Frame=751260   JointI=670661   JointJ=670662   IsCurved=No   GUID=596fdcc6-0c42-41d7-9835-eb739c92193f
   Frame=751261   JointI=670620   JointJ=670663   IsCurved=No   GUID=505b0b7b-22cf-4281-bf32-bc58e73f376f
   Frame=751262   JointI=670663   JointJ=670664   IsCurved=No   GUID=de31b154-3fba-40d2-b0c4-8447b6dc7557
   Frame=751263   JointI=670621   JointJ=670665   IsCurved=No   GUID=bc33b0ec-3679-4d02-a1ca-a008e5517a73
   Frame=751264   JointI=670665   JointJ=670666   IsCurved=No   GUID=ceef0c34-2567-4b12-a724-2054ddbb377e
   Frame=751265   JointI=670622   JointJ=670667   IsCurved=No   GUID=d21ae131-31b0-4a00-95f4-94b8fb549290
   Frame=751266   JointI=670667   JointJ=670668   IsCurved=No   GUID=228572f0-eb5c-4d54-95d2-4ddd65e7ece3
   Frame=751267   JointI=670634   JointJ=670637   IsCurved=No   GUID=7156e978-7a14-465c-8551-e65deef372a4
   Frame=751268   JointI=670637   JointJ=670640   IsCurved=No   GUID=b3caeafe-4711-4b10-a17a-881d9c3bb4f6
   Frame=751269   JointI=670640   JointJ=670643   IsCurved=No   GUID=4aebc024-a140-4bcb-b96f-699fae1db659
   Frame=751270   JointI=670643   JointJ=670646   IsCurved=No   GUID=783a2ebd-d33e-4ccf-8230-6633a2066a5c
   Frame=751271   JointI=670646   JointJ=670649   IsCurved=No   GUID=bb550e9d-9274-4617-ab31-c4d9949bd78b
   Frame=751272   JointI=670649   JointJ=670652   IsCurved=No   GUID=ad541d7b-6306-49ff-9ffd-488839ee48fa
 
TABLE:  "COORDINATE SYSTEMS"
   Name=GLOBAL   Type=Cartesian   X=0   Y=0   Z=0   AboutZ=0   AboutY=0   AboutX=0
 
TABLE:  "DATABASE DOCUMENTATION"
 
TABLE:  "DATABASE FORMAT TYPES"
   UnitsCurr=Yes   OverrideE=No
 
TABLE:  "FRAME AUTO MESH ASSIGNMENTS"
   Frame=751195   AutoMesh=Yes   AtJoints=Yes   AtFrames=No   NumSegments=0   MaxLength=0   MaxDegrees=0
   Frame=751196   AutoMesh=Yes   AtJoints=Yes   AtFrames=No   NumSegments=0   MaxLength=0   MaxDegrees=0
   Frame=751197   AutoMesh=Yes   AtJoints=Yes   AtFrames=No   NumSegments=0   MaxLength=0   MaxDegrees=0
   Frame=751198   AutoMesh=Yes   AtJoints=Yes   AtFrames=No   NumSegments=0   MaxLength=0   MaxDegrees=0
   Frame=751199   AutoMesh=Yes   AtJoints=Yes   AtFrames=No   NumSegments=0   MaxLength=0   MaxDegrees=0
   Frame=751200   AutoMesh=Yes   AtJoints=Yes   AtFrames=No   NumSegments=0   MaxLength=0   MaxDegrees=0
   Frame=751201   AutoMesh=Yes   AtJoints=Yes   AtFrames=No   NumSegments=0   MaxLength=0   MaxDegrees=0
   Frame=751202   AutoMesh=Yes   AtJoints=Yes   AtFrames=No   NumSegments=0   MaxLength=0   MaxDegrees=0
   Frame=751203   AutoMesh=Yes   AtJoints=Yes   AtFrames=No   NumSegments=0   MaxLength=0   MaxDegrees=0
   Frame=751204   AutoMesh=Yes   AtJoints=Yes   AtFrames=No   NumSegments=0   MaxLength=0   MaxDegrees=0
   Frame=751205   AutoMesh=Yes   AtJoints=Yes   AtFrames=No   NumSegments=0   MaxLength=0   MaxDegrees=0
   Frame=751206   AutoMesh=Yes   AtJoints=Yes   AtFrames=No   NumSegments=0   MaxLength=0   MaxDegrees=0
   Frame=751207   AutoMesh=Yes   AtJoints=Yes   AtFrames=No   NumSegments=0   MaxLength=0   MaxDegrees=0
   Frame=751208   AutoMesh=Yes   AtJoints=Yes   AtFrames=No   NumSegments=0   MaxLength=0   MaxDegrees=0
   Frame=751209   AutoMesh=Yes   AtJoints=Yes   AtFrames=No   NumSegments=0   MaxLength=0   MaxDegrees=0
   Frame=751210   AutoMesh=Yes   AtJoints=Yes   AtFrames=No   NumSegments=0   MaxLength=0   MaxDegrees=0
   Frame=751211   AutoMesh=Yes   AtJoints=Yes   AtFrames=No   NumSegments=0   MaxLength=0   MaxDegrees=0
   Frame=751212   AutoMesh=Yes   AtJoints=Yes   AtFrames=No   NumSegments=0   MaxLength=0   MaxDegrees=0
   Frame=751213   AutoMesh=Yes   AtJoints=Yes   AtFrames=No   NumSegments=0   MaxLength=0   MaxDegrees=0
   Frame=751214   AutoMesh=Yes   AtJoints=Yes   AtFrames=No   NumSegments=0   MaxLength=0   MaxDegrees=0
# ... 58 like lines cut
 
TABLE:  "FRAME DESIGN PROCEDURES"
   Frame=751195   DesignProc="From Material"
   Frame=751196   DesignProc="From Material"
   Frame=751197   DesignProc="From Material"
   Frame=751198   DesignProc="From Material"
   Frame=751199   DesignProc="From Material"
   Frame=751200   DesignProc="From Material"
   Frame=751201   DesignProc="From Material"
   Frame=751202   DesignProc="From Material"
   Frame=751203   DesignProc="From Material"
   Frame=751204   DesignProc="From Material"
   Frame=751205   DesignProc="From Material"
   Frame=751206   DesignProc="From Material"
   Frame=751207   DesignProc="From Material"
   Frame=751208   DesignProc="From Material"
   Frame=751209   DesignProc="From Material"
   Frame=751210   DesignProc="From Material"
   Frame=751211   DesignProc="From Material"
   Frame=751212   DesignProc="From Material"
   Frame=751213   DesignProc="From Material"
   Frame=751214   DesignProc="From Material"
# ... 18 like lines cut
   Frame=751233   DesignProc="No Design"
   Frame=751234   DesignProc="No Design"
   Frame=751235   DesignProc="From Material"
   Frame=751236   DesignProc="No Design"
   Frame=751237   DesignProc="No Design"
   Frame=751238   DesignProc="From Material"
   Frame=751239   DesignProc="No Design"
   Frame=751240   DesignProc="No Design"
   Frame=751241   DesignProc="From Material"
   Frame=751242   DesignProc="No Design"
   Frame=751243   DesignProc="No Design"
   Frame=751244   DesignProc="From Material"
   Frame=751245   DesignProc="No Design"
   Frame=751246   DesignProc="No Design"
   Frame=751247   DesignProc="From Material"
   Frame=751248   DesignProc="No Design"
   Frame=751249   DesignProc="No Design"
   Frame=751250   DesignProc="From Material"
   Frame=751251   DesignProc="No Design"
   Frame=751252   DesignProc="No Design"
   Frame=751253   DesignProc="No Design"
   Frame=751254   DesignProc="No Design"
   Frame=751255   DesignProc="No Design"
   Frame=751256   DesignProc="No Design"
   Frame=751257   DesignProc="No Design"
   Frame=751258   DesignProc="No Design"
   Frame=751259   DesignProc="No Design"
   Frame=751260   DesignProc="No Design"
   Frame=751261   DesignProc="No Design"
   Frame=751262   DesignProc="No Design"
   Frame=751263   DesignProc="No Design"
   Frame=751264   DesignProc="No Design"
   Frame=751265   DesignProc="No Design"
   Frame=751266   DesignProc="No Design"
   Frame=751267   DesignProc="From Material"
   Frame=751268   DesignProc="From Material"
   Frame=751269   DesignProc="From Material"
   Frame=751270   DesignProc="From Material"
   Frame=751271   DesignProc="From Material"
   Frame=751272   DesignProc="From Material"
 
TABLE:  "FRAME LOAD TRANSFER OPTIONS"
   Frame=751195   Transfer=Yes
   Frame=751196   Transfer=Yes
   Frame=751197   Transfer=Yes
   Frame=751198   Transfer=Yes
   Frame=751199   Transfer=Yes
   Frame=751200   Transfer=Yes
   Frame=751201   Transfer=Yes
   Frame=751202   Transfer=Yes
   Frame=751203   Transfer=Yes
   Frame=751204   Transfer=Yes
   Frame=751205   Transfer=Yes
   Frame=751206   Transfer=Yes
   Frame=751207   Transfer=Yes
   Frame=751208   Transfer=Yes
   Frame=751209   Transfer=Yes
   Frame=751210   Transfer=Yes
   Frame=751211   Transfer=Yes
   Frame=751212   Transfer=Yes
   Frame=751213   Transfer=Yes
   Frame=751214   Transfer=Yes
# ... 58 like lines cut
 
TABLE:  "FRAME LOCAL AXES ASSIGNMENTS 1 - TYPICAL"
   Frame=751232   Angle=90
   Frame=751235   Angle=90
   Frame=751238   Angle=90
   Frame=751241   Angle=90
   Frame=751244   Angle=90
   Frame=751247   Angle=90
   Frame=751250   Angle=90
 
TABLE:  "FRAME OUTPUT STATION ASSIGNMENTS"
   Frame=751195   StationType=MaxStaSpcg   MaxStaSpcg=0.5   AddAtElmInt=Yes   AddAtPtLoad=Yes
   Frame=751196   StationType=MaxStaSpcg   MaxStaSpcg=0.5   AddAtElmInt=Yes   AddAtPtLoad=Yes
   Frame=751197   StationType=MaxStaSpcg   MaxStaSpcg=0.5   AddAtElmInt=Yes   AddAtPtLoad=Yes
   Frame=751198   StationType=MaxStaSpcg   MaxStaSpcg=0.5   AddAtElmInt=Yes   AddAtPtLoad=Yes
   Frame=751199   StationType=MaxStaSpcg   MaxStaSpcg=0.5   AddAtElmInt=Yes   AddAtPtLoad=Yes
   Frame=751200   StationType=MaxStaSpcg   MaxStaSpcg=0.5   AddAtElmInt=Yes   AddAtPtLoad=Yes
   Frame=751201   StationType=MaxStaSpcg   MaxStaSpcg=0.5   AddAtElmInt=Yes   AddAtPtLoad=Yes
   Frame=751202   StationType=MaxStaSpcg   MaxStaSpcg=0.5   AddAtElmInt=Yes   AddAtPtLoad=Yes
   Frame=751203   StationType=MaxStaSpcg   MaxStaSpcg=0.5   AddAtElmInt=Yes   AddAtPtLoad=Yes
   Frame=751204   StationType=MaxStaSpcg   MaxStaSpcg=0.5   AddAtElmInt=Yes   AddAtPtLoad=Yes
   Frame=751205   StationType=MaxStaSpcg   MaxStaSpcg=0.5   AddAtElmInt=Yes   AddAtPtLoad=Yes
   Frame=751206   StationType=MaxStaSpcg   MaxStaSpcg=0.5   AddAtElmInt=Yes   AddAtPtLoad=Yes
   Frame=751207   StationType=MaxStaSpcg   MaxStaSpcg=0.5   AddAtElmInt=Yes   AddAtPtLoad=Yes
   Frame=751208   StationType=MaxStaSpcg   MaxStaSpcg=0.5   AddAtElmInt=Yes   AddAtPtLoad=Yes
   Frame=751209   StationType=MaxStaSpcg   MaxStaSpcg=0.5   AddAtElmInt=Yes   AddAtPtLoad=Yes
   Frame=751210   StationType=MaxStaSpcg   MaxStaSpcg=0.5   AddAtElmInt=Yes   AddAtPtLoad=Yes
   Frame=751211   StationType=MaxStaSpcg   MaxStaSpcg=0.5   AddAtElmInt=Yes   AddAtPtLoad=Yes
   Frame=751212   StationType=MaxStaSpcg   MaxStaSpcg=0.5   AddAtElmInt=Yes   AddAtPtLoad=Yes
   Frame=751213   StationType=MaxStaSpcg   MaxStaSpcg=0.5   AddAtElmInt=Yes   AddAtPtLoad=Yes
   Frame=751214   StationType=MaxStaSpcg   MaxStaSpcg=0.5   AddAtElmInt=Yes   AddAtPtLoad=Yes
# ... 17 like lines cut
   Frame=751232   StationType=MinNumSta   MinNumSta=3   AddAtElmInt=Yes   AddAtPtLoad=Yes
   Frame=751233   StationType=MinNumSta   MinNumSta=3   AddAtElmInt=Yes   AddAtPtLoad=Yes
   Frame=751234   StationType=MinNumSta   MinNumSta=3   AddAtElmInt=Yes   AddAtPtLoad=Yes
   Frame=751235   StationType=MinNumSta   MinNumSta=3   AddAtElmInt=Yes   AddAtPtLoad=Yes
   Frame=751236   StationType=MinNumSta   MinNumSta=3   AddAtElmInt=Yes   AddAtPtLoad=Yes
   Frame=751237   StationType=MinNumSta   MinNumSta=3   AddAtElmInt=Yes   AddAtPtLoad=Yes
   Frame=751238   StationType=MinNumSta   MinNumSta=3   AddAtElmInt=Yes   AddAtPtLoad=Yes
   Frame=751239   StationType=MinNumSta   MinNumSta=3   AddAtElmInt=Yes   AddAtPtLoad=Yes
   Frame=751240   StationType=MinNumSta   MinNumSta=3   AddAtElmInt=Yes   AddAtPtLoad=Yes
   Frame=751241   StationType=MinNumSta   MinNumSta=3   AddAtElmInt=Yes   AddAtPtLoad=Yes
   Frame=751242   StationType=MinNumSta   MinNumSta=3   AddAtElmInt=Yes   AddAtPtLoad=Yes
   Frame=751243   StationType=MinNumSta   MinNumSta=3   AddAtElmInt=Yes   AddAtPtLoad=Yes
   Frame=751244   StationType=MinNumSta   MinNumSta=3   AddAtElmInt=Yes   AddAtPtLoad=Yes
   Frame=751245   StationType=MinNumSta   MinNumSta=3   AddAtElmInt=Yes   AddAtPtLoad=Yes
   Frame=751246   StationType=MinNumSta   MinNumSta=3   AddAtElmInt=Yes   AddAtPtLoad=Yes
   Frame=751247   StationType=MinNumSta   MinNumSta=3   AddAtElmInt=Yes   AddAtPtLoad=Yes
   Frame=751248   StationType=MinNumSta   MinNumSta=3   AddAtElmInt=Yes   AddAtPtLoad=Yes
   Frame=751249   StationType=MinNumSta   MinNumSta=3   AddAtElmInt=Yes   AddAtPtLoad=Yes
   Frame=751250   StationType=MinNumSta   MinNumSta=3   AddAtElmInt=Yes   AddAtPtLoad=Yes
   Frame=751251   StationType=MinNumSta   MinNumSta=3   AddAtElmInt=Yes   AddAtPtLoad=Yes
# ... 15 like lines cut
   Frame=751267   StationType=MaxStaSpcg   MaxStaSpcg=0.5   AddAtElmInt=Yes   AddAtPtLoad=Yes
   Frame=751268   StationType=MaxStaSpcg   MaxStaSpcg=0.5   AddAtElmInt=Yes   AddAtPtLoad=Yes
   Frame=751269   StationType=MaxStaSpcg   MaxStaSpcg=0.5   AddAtElmInt=Yes   AddAtPtLoad=Yes
   Frame=751270   StationType=MaxStaSpcg   MaxStaSpcg=0.5   AddAtElmInt=Yes   AddAtPtLoad=Yes
   Frame=751271   StationType=MaxStaSpcg   MaxStaSpcg=0.5   AddAtElmInt=Yes   AddAtPtLoad=Yes
   Frame=751272   StationType=MaxStaSpcg   MaxStaSpcg=0.5   AddAtElmInt=Yes   AddAtPtLoad=Yes
 
TABLE:  "FRAME SECTION ASSIGNMENTS"
   Frame=751195   AutoSelect=N.A.   AnalSect=TB   MatProp=Default
   Frame=751196   AutoSelect=N.A.   AnalSect=TB   MatProp=Default
   Frame=751197   AutoSelect=N.A.   AnalSect=TB   MatProp=Default
   Frame=751198   AutoSelect=N.A.   AnalSect=TB   MatProp=Default
   Frame=751199   AutoSelect=N.A.   AnalSect=TB   MatProp=Default
   Frame=751200   AutoSelect=N.A.   AnalSect=TB   MatProp=Default
   Frame=751201   AutoSelect=N.A.   AnalSect=TB   MatProp=Default
   Frame=751202   AutoSelect=N.A.   AnalSect=TB   MatProp=Default
   Frame=751203   AutoSelect=N.A.   AnalSect=TB   MatProp=Default
   Frame=751204   AutoSelect=N.A.   AnalSect=TB   MatProp=Default
   Frame=751205   AutoSelect=N.A.   AnalSect=TB   MatProp=Default
   Frame=751206   AutoSelect=N.A.   AnalSect=TB   MatProp=Default
   Frame=751207   AutoSelect=N.A.   AnalSect=TB   MatProp=Default
   Frame=751208   AutoSelect=N.A.   AnalSect=TB   MatProp=Default
   Frame=751209   AutoSelect=N.A.   AnalSect=TB   MatProp=Default
   Frame=751210   AutoSelect=N.A.   AnalSect=TB   MatProp=Default
   Frame=751211   AutoSelect=N.A.   AnalSect=TB   MatProp=Default
   Frame=751212   AutoSelect=N.A.   AnalSect=TB   MatProp=Default
   Frame=751213   AutoSelect=N.A.   AnalSect=TB   MatProp=Default
   Frame=751214   AutoSelect=N.A.   AnalSect=TB   MatProp=Default
   Frame=751215   AutoSelect=N.A.   AnalSect=TB   MatProp=Default
   Frame=751216   AutoSelect=N.A.   AnalSect=LB   MatProp=Default
   Frame=751217   AutoSelect=N.A.   AnalSect=LB   MatProp=Default
   Frame=751218   AutoSelect=N.A.   AnalSect=LB   MatProp=Default
   Frame=751219   AutoSelect=N.A.   AnalSect=LB   MatProp=Default
   Frame=751220   AutoSelect=N.A.   AnalSect=LB   MatProp=Default
   Frame=751221   AutoSelect=N.A.   AnalSect=LB   MatProp=Default
   Frame=751222   AutoSelect=N.A.   AnalSect=LB   MatProp=Default
   Frame=751223   AutoSelect=N.A.   AnalSect=LB   MatProp=Default
   Frame=751224   AutoSelect=N.A.   AnalSect=LB   MatProp=Default
   Frame=751225   AutoSelect=N.A.   AnalSect=LB   MatProp=Default
   Frame=751226   AutoSelect=N.A.   AnalSect=LB   MatProp=Default
   Frame=751227   AutoSelect=N.A.   AnalSect=LB   MatProp=Default
   Frame=751228   AutoSelect=N.A.   AnalSect=LB   MatProp=Default
   Frame=751229   AutoSelect=N.A.   AnalSect=LB   MatProp=Default
   Frame=751230   AutoSelect=N.A.   AnalSect=LB   MatProp=Default
   Frame=751231   AutoSelect=N.A.   AnalSect=LB   MatProp=Default
   Frame=751232   AutoSelect=N.A.   AnalSect=EB   MatProp=Default
   Frame=751233   AutoSelect=N.A.   AnalSect=Piles   MatProp=Default
   Frame=751234   AutoSelect=N.A.   AnalSect=Piles   MatProp=Default
   Frame=751235   AutoSelect=N.A.   AnalSect=EB   MatProp=Default
   Frame=751236   AutoSelect=N.A.   AnalSect=Piles   MatProp=Default
   Frame=751237   AutoSelect=N.A.   AnalSect=Piles   MatProp=Default
   Frame=751238   AutoSelect=N.A.   AnalSect=EB   MatProp=Default
   Frame=751239   AutoSelect=N.A.   AnalSect=Piles   MatProp=Default
   Frame=751240   AutoSelect=N.A.   AnalSect=Piles   MatProp=Default
   Frame=751241   AutoSelect=N.A.   AnalSect=EB   MatProp=Default
   Frame=751242   AutoSelect=N.A.   AnalSect=Piles   MatProp=Default
   Frame=751243   AutoSelect=N.A.   AnalSect=Piles   MatProp=Default
   Frame=751244   AutoSelect=N.A.   AnalSect=EB   MatProp=Default
   Frame=751245   AutoSelect=N.A.   AnalSect=Piles   MatProp=Default
   Frame=751246   AutoSelect=N.A.   AnalSect=Piles   MatProp=Default
   Frame=751247   AutoSelect=N.A.   AnalSect=EB   MatProp=Default
   Frame=751248   AutoSelect=N.A.   AnalSect=Piles   MatProp=Default
   Frame=751249   AutoSelect=N.A.   AnalSect=Piles   MatProp=Default
   Frame=751250   AutoSelect=N.A.   AnalSect=EB   MatProp=Default
   Frame=751251   AutoSelect=N.A.   AnalSect=Piles   MatProp=Default
   Frame=751252   AutoSelect=N.A.   AnalSect=Piles   MatProp=Default
   Frame=751253   AutoSelect=N.A.   AnalSect=Piles   MatProp=Default
   Frame=751254   AutoSelect=N.A.   AnalSect=Piles   MatProp=Default
   Frame=751255   AutoSelect=N.A.   AnalSect=Piles   MatProp=Default
   Frame=751256   AutoSelect=N.A.   AnalSect=Piles   MatProp=Default
   Frame=751257   AutoSelect=N.A.   AnalSect=Piles   MatProp=Default
   Frame=751258   AutoSelect=N.A.   AnalSect=Piles   MatProp=Default
   Frame=751259   AutoSelect=N.A.   AnalSect=Piles   MatProp=Default
   Frame=751260   AutoSelect=N.A.   AnalSect=Piles   MatProp=Default
   Frame=751261   AutoSelect=N.A.   AnalSect=Piles   MatProp=Default
   Frame=751262   AutoSelect=N.A.   AnalSect=Piles   MatProp=Default
   Frame=751263   AutoSelect=N.A.   AnalSect=Piles   MatProp=Default
   Frame=751264   AutoSelect=N.A.   AnalSect=Piles   MatProp=Default
   Frame=751265   AutoSelect=N.A.   AnalSect=Piles   MatProp=Default
   Frame=751266   AutoSelect=N.A.   AnalSect=Piles   MatProp=Default
   Frame=751267   AutoSelect=N.A.   AnalSect=EB-1   MatProp=Default
   Frame=751268   AutoSelect=N.A.   AnalSect=EB-1   MatProp=Default
   Frame=751269   AutoSelect=N.A.   AnalSect=EB-1   MatProp=Default
   Frame=751270   AutoSelect=N.A.   AnalSect=EB-1   MatProp=Default
   Frame=751271   AutoSelect=N.A.   AnalSect=EB-1   MatProp=Default
   Frame=751272   AutoSelect=N.A.   AnalSect=EB-1   MatProp=Default
 
TABLE:  "FRAME SECTION PROPERTIES 01 - GENERAL"
   SectionName=EB   Material=BTCT   Shape=Rectangular   t3=1.2   t2=0.5   Area=0.6   TorsConst=0.0369079665195795   I33=0.072   I22=0.0125   I23=0   AS2=0.5   AS3=0.5   S33Top=0.12   S33Bot=0.12   S22Left=0.05   S22Right=0.05   Z33=0.18 _
        Z22=0.075   R33=0.346410161513775   R22=0.144337567297406   CGOffset3=0   CGOffset2=0   EccV2=0   EccV3=0   Cw=0   Color=Magenta   FromFile=No   AMod=1   A2Mod=1   A3Mod=1   JMod=1   I2Mod=1   I3Mod=1   MMod=1   WMod=1
   SectionName=EB-1   Material=BTCT   Shape=Rectangular   t3=0.5   t2=0.5   Area=0.25   TorsConst=0.00880208333333333   I33=0.00520833333333333   I22=0.00520833333333333   I23=0   AS2=0.208333333333333   AS3=0.208333333333333 _
        S33Top=0.0208333333333333   S33Bot=0.0208333333333333   S22Left=0.0208333333333333   S22Right=0.0208333333333333   Z33=0.03125   Z22=0.03125   R33=0.144337567297406   R22=0.144337567297406   CGOffset3=0   CGOffset2=0   EccV2=0 _
        EccV3=0   Cw=0   Color=Yellow   FromFile=No   AMod=1   A2Mod=1   A3Mod=1   JMod=1   I2Mod=1   I3Mod=1   MMod=1   WMod=1
   SectionName=LB   Material=BTCT   Shape=Rectangular   t3=0.5   t2=0.5   Area=0.25   TorsConst=0.00880208333333333   I33=0.00520833333333333   I22=0.00520833333333333   I23=0   AS2=0.208333333333333   AS3=0.208333333333333 _
        S33Top=0.0208333333333333   S33Bot=0.0208333333333333   S22Left=0.0208333333333333   S22Right=0.0208333333333333   Z33=0.03125   Z22=0.03125   R33=0.144337567297406   R22=0.144337567297406   CGOffset3=0   CGOffset2=0   EccV2=0 _
        EccV3=0   Cw=0   Color=Red   FromFile=No   AMod=1   A2Mod=1   A3Mod=1   JMod=1   I2Mod=1   I3Mod=1   MMod=1   WMod=1
   SectionName=Piles   Material=BTCTCOC   Shape=Pipe   t3=0.3   tw=0.06   Area=0.045238934211693   TorsConst=0.000692155693438903   I33=0.000346077846719452   I22=0.000346077846719452   I23=0   AS2=0.0235427106611872 _
        AS3=0.0235427106611872   S33Top=0.00230718564479634   S33Bot=0.00230718564479634   S22Left=0.00230718564479634   S22Right=0.00230718564479634   Z33=0.003528   Z22=0.003528   R33=0.0874642784226795   R22=0.0874642784226795 _
        CGOffset3=0   CGOffset2=0   EccV2=0   EccV3=0   Cw=0   Color=Gray8Dark   FromFile=No   AMod=1   A2Mod=1   A3Mod=1   JMod=1   I2Mod=1   I3Mod=1   MMod=1   WMod=1
   SectionName=TB   Material=BTCT   Shape=Rectangular   t3=0.5   t2=0.5   Area=0.25   TorsConst=0.00880208333333333   I33=0.00520833333333333   I22=0.00520833333333333   I23=0   AS2=0.208333333333333   AS3=0.208333333333333 _
        S33Top=0.0208333333333333   S33Bot=0.0208333333333333   S22Left=0.0208333333333333   S22Right=0.0208333333333333   Z33=0.03125   Z22=0.03125   R33=0.144337567297406   R22=0.144337567297406   CGOffset3=0   CGOffset2=0   EccV2=0 _
        EccV3=0   Cw=0   Color=Cyan   FromFile=No   AMod=1   A2Mod=1   A3Mod=1   JMod=1   I2Mod=1   I3Mod=1   MMod=1   WMod=1
 
TABLE:  "FRAME SECTION PROPERTIES 02 - CONCRETE COLUMN"
   SectionName=EB   RebarMatL=A706   RebarMatC=A706   ReinfConfig=Rectangular   LatReinf=Ties   Cover=0.05   NumBars3Dir=2   NumBars2Dir=2   BarSizeL=12d   BarSizeC=10d   SpacingC=0.1   NumCBars2=2   NumCBars3=2   ReinfType=Design
   SectionName=EB-1   RebarMatL=A706   RebarMatC=A706   ReinfConfig=Rectangular   LatReinf=Ties   Cover=0.05   NumBars3Dir=2   NumBars2Dir=2   BarSizeL=12d   BarSizeC=10d   SpacingC=0.1   NumCBars2=2   NumCBars3=2   ReinfType=Design
   SectionName=LB   RebarMatL=A706   RebarMatC=A706   ReinfConfig=Rectangular   LatReinf=Ties   Cover=0.05   NumBars3Dir=2   NumBars2Dir=2   BarSizeL=12d   BarSizeC=10d   SpacingC=0.1   NumCBars2=2   NumCBars3=2   ReinfType=Design
   SectionName=TB   RebarMatL=A706   RebarMatC=A706   ReinfConfig=Rectangular   LatReinf=Ties   Cover=0.05   NumBars3Dir=2   NumBars2Dir=2   BarSizeL=12d   BarSizeC=10d   SpacingC=0.1   NumCBars2=2   NumCBars3=2   ReinfType=Design
 
TABLE:  "FRAME SECTION PROPERTIES 13 - TIME DEPENDENT"
   SectionName=EB   TypeSize=Auto   AutoSFSize=1
   SectionName=EB-1   TypeSize=Auto   AutoSFSize=1
   SectionName=LB   TypeSize=Auto   AutoSFSize=1
   SectionName=Piles   TypeSize=Auto   AutoSFSize=1
   SectionName=TB   TypeSize=Auto   AutoSFSize=1
 
TABLE:  "FUNCTION - PLOT FUNCTIONS"
   PlotFunc="Input Energy"   Type=Energy   Component=Input   Mode=All
 
TABLE:  "FUNCTION - POWER SPECTRAL DENSITY - USER"
   Name=UNIFPSD   Frequency=0   Value=1
   Name=UNIFPSD   Frequency=1   Value=1
 
TABLE:  "FUNCTION - RESPONSE SPECTRUM - USER"
   Name=UNIFRS   Period=0   Accel=1   FuncDamp=0.05
   Name=UNIFRS   Period=1   Accel=1
 
TABLE:  "FUNCTION - STEADY STATE - USER"
   Name=UNIFSS   Frequency=0   Value=1
   Name=UNIFSS   Frequency=1   Value=1
 
TABLE:  "FUNCTION - TIME HISTORY - USER"
   Name=RAMPTH   Time=0   Value=0
   Name=RAMPTH   Time=1   Value=1
   Name=RAMPTH   Time=4   Value=1
   Name=UNIFTH   Time=0   Value=1
   Name=UNIFTH   Time=1   Value=1
 
TABLE:  "GRID LINES"
   CoordSys=GLOBAL   AxisDir=X   GridID=A   XRYZCoord=-10   LineType=Primary   LineColor=Gray8Dark   Visible=Yes   BubbleLoc=End   AllVisible=Yes   BubbleSize=0.9375
   CoordSys=GLOBAL   AxisDir=X   GridID=B   XRYZCoord=-9   LineType=Primary   LineColor=Gray8Dark   Visible=Yes   BubbleLoc=End
   CoordSys=GLOBAL   AxisDir=X   GridID=C   XRYZCoord=-4.5   LineType=Primary   LineColor=Gray8Dark   Visible=Yes   BubbleLoc=End
   CoordSys=GLOBAL   AxisDir=X   GridID=D   XRYZCoord=0   LineType=Primary   LineColor=Gray8Dark   Visible=Yes   BubbleLoc=End
   CoordSys=GLOBAL   AxisDir=X   GridID=E   XRYZCoord=4.5   LineType=Primary   LineColor=Gray8Dark   Visible=Yes   BubbleLoc=End
   CoordSys=GLOBAL   AxisDir=X   GridID=F   XRYZCoord=9   LineType=Primary   LineColor=Gray8Dark   Visible=Yes   BubbleLoc=End
   CoordSys=GLOBAL   AxisDir=X   GridID=G   XRYZCoord=10   LineType=Primary   LineColor=Gray8Dark   Visible=Yes   BubbleLoc=End
   CoordSys=GLOBAL   AxisDir=Y   GridID=1   XRYZCoord=-5.2   LineType=Primary   LineColor=Gray8Dark   Visible=Yes   BubbleLoc=Start
   CoordSys=GLOBAL   AxisDir=Y   GridID=2   XRYZCoord=-4.2   LineType=Primary   LineColor=Gray8Dark   Visible=Yes   BubbleLoc=Start
   CoordSys=GLOBAL   AxisDir=Y   GridID=3   XRYZCoord=0   LineType=Primary   LineColor=Gray8Dark   Visible=Yes   BubbleLoc=Start
   CoordSys=GLOBAL   AxisDir=Y   GridID=4   XRYZCoord=4.2   LineType=Primary   LineColor=Gray8Dark   Visible=Yes   BubbleLoc=Start
   CoordSys=GLOBAL   AxisDir=Y   GridID=5   XRYZCoord=4.8   LineType=Primary   LineColor=Gray8Dark   Visible=Yes   BubbleLoc=Start
   CoordSys=GLOBAL   AxisDir=Z   GridID=Z1   XRYZCoord=0   LineType=Primary   LineColor=Gray8Dark   Visible=Yes   BubbleLoc=End
   CoordSys=GLOBAL   AxisDir=Z   GridID=Z2   XRYZCoord=13   LineType=Primary   LineColor=Gray8Dark   Visible=Yes   BubbleLoc=End
 
TABLE:  "GROUPS 1 - DEFINITIONS"
   GroupName=ALL   Selection=Yes   SectionCut=Yes   Steel=Yes   Concrete=Yes   Aluminum=Yes   ColdFormed=Yes   Stage=Yes   Bridge=Yes   AutoSeismic=No   AutoWind=No   SelDesSteel=No   SelDesAlum=No   SelDesCold=No   MassWeight=Yes   Color=Red
   GroupName=Pile   Selection=Yes   SectionCut=Yes   Steel=Yes   Concrete=Yes   Aluminum=Yes   ColdFormed=Yes   Stage=Yes   Bridge=Yes   AutoSeismic=No   AutoWind=No   SelDesSteel=No   SelDesAlum=No   SelDesCold=No   MassWeight=Yes   Color=Gray8Dark
   GroupName=DN   Selection=Yes   SectionCut=Yes   Steel=Yes   Concrete=Yes   Aluminum=Yes   ColdFormed=Yes   Stage=Yes   Bridge=Yes   AutoSeismic=No   AutoWind=No   SelDesSteel=No   SelDesAlum=No   SelDesCold=No   MassWeight=Yes   Color=Yellow
   GroupName=Pile_Toe   Selection=Yes   SectionCut=Yes   Steel=Yes   Concrete=Yes   Aluminum=Yes   ColdFormed=Yes   Stage=Yes   Bridge=Yes   AutoSeismic=No   AutoWind=No   SelDesSteel=No   SelDesAlum=No   SelDesCold=No   MassWeight=Yes   Color=Green
   GroupName=Pile_Bend   Selection=Yes   SectionCut=Yes   Steel=Yes   Concrete=Yes   Aluminum=Yes   ColdFormed=Yes   Stage=Yes   Bridge=Yes   AutoSeismic=No   AutoWind=No   SelDesSteel=No   SelDesAlum=No   SelDesCold=No   MassWeight=Yes   Color=Cyan
   GroupName=Beam   Selection=Yes   SectionCut=Yes   Steel=Yes   Concrete=Yes   Aluminum=Yes   ColdFormed=Yes   Stage=Yes   Bridge=Yes   AutoSeismic=No   AutoWind=No   SelDesSteel=No   SelDesAlum=No   SelDesCold=No   MassWeight=Yes   Color=Blue
   GroupName=Piles   Selection=Yes   SectionCut=Yes   Steel=Yes   Concrete=Yes   Aluminum=Yes   ColdFormed=Yes   Stage=Yes   Bridge=Yes   AutoSeismic=No   AutoWind=No   SelDesSteel=No   SelDesAlum=No   SelDesCold=No   MassWeight=Yes   Color=Magenta
   GroupName=Beams   Selection=Yes   SectionCut=Yes   Steel=Yes   Concrete=Yes   Aluminum=Yes   ColdFormed=Yes   Stage=Yes   Bridge=Yes   AutoSeismic=No   AutoWind=No   SelDesSteel=No   SelDesAlum=No   SelDesCold=No   MassWeight=Yes   Color=Yellow
 
TABLE:  "GROUPS 2 - ASSIGNMENTS"
 
TABLE:  "JOINT COORDINATES"
   Joint=670602   CoordSys=GLOBAL   CoordType=Cartesian   XorR=-9   Y=-5   Z=0   SpecialJt=No   GUID=aab767a7-8838-493b-9939-0e7e88fc493e
   Joint=670603   CoordSys=GLOBAL   CoordType=Cartesian   XorR=-9   Y=-2.75   Z=0   SpecialJt=No   GUID=96b2c4f8-4b5a-42fe-94f8-739b0dbdcd50
   Joint=670604   CoordSys=GLOBAL   CoordType=Cartesian   XorR=-6   Y=-5   Z=0   SpecialJt=No   GUID=a640815a-356e-468b-8f7e-d5d7f0570370
   Joint=670605   CoordSys=GLOBAL   CoordType=Cartesian   XorR=-6   Y=-2.75   Z=0   SpecialJt=No   GUID=73dc4387-02db-4798-b5d4-ea080a5ac762
   Joint=670606   CoordSys=GLOBAL   CoordType=Cartesian   XorR=-3   Y=-5   Z=0   SpecialJt=No   GUID=1344c7e3-7b3d-448f-b980-99f34c85c9a2
   Joint=670607   CoordSys=GLOBAL   CoordType=Cartesian   XorR=-3   Y=-2.75   Z=0   SpecialJt=No   GUID=0303e7c4-9b26-4128-9cff-a70ef42f5266
   Joint=670608   CoordSys=GLOBAL   CoordType=Cartesian   XorR=0   Y=-5   Z=0   SpecialJt=No   GUID=4d066bff-05a7-4005-83df-c39402293e90
   Joint=670609   CoordSys=GLOBAL   CoordType=Cartesian   XorR=0   Y=-2.75   Z=0   SpecialJt=No   GUID=e49ddc0d-5810-4db6-a6bf-77f637ba23c6
   Joint=670610   CoordSys=GLOBAL   CoordType=Cartesian   XorR=3   Y=-5   Z=0   SpecialJt=No   GUID=3583f015-6278-45d9-a947-e4ee1122011e
   Joint=670611   CoordSys=GLOBAL   CoordType=Cartesian   XorR=3   Y=-2.75   Z=0   SpecialJt=No   GUID=4f4012e8-e4b4-4e8d-897c-7cd27a8e5f64
   Joint=670612   CoordSys=GLOBAL   CoordType=Cartesian   XorR=6   Y=-5   Z=0   SpecialJt=No   GUID=02630184-98e3-4dc6-82a1-e36bd183d71e
   Joint=670613   CoordSys=GLOBAL   CoordType=Cartesian   XorR=6   Y=-2.75   Z=0   SpecialJt=No   GUID=4d47321d-b178-4e9d-bc84-1673917e904c
   Joint=670614   CoordSys=GLOBAL   CoordType=Cartesian   XorR=9   Y=-5   Z=0   SpecialJt=No   GUID=37a1e51a-a09c-421c-b226-dc620f784278
   Joint=670615   CoordSys=GLOBAL   CoordType=Cartesian   XorR=9   Y=-2.75   Z=0   SpecialJt=No   GUID=c8d9feee-70af-43d8-9213-a52b1593b94d
   Joint=670616   CoordSys=GLOBAL   CoordType=Cartesian   XorR=-9   Y=2.75   Z=0   SpecialJt=No   GUID=2e1ab61f-b785-4c47-abf6-fcb3362cb7c1
   Joint=670617   CoordSys=GLOBAL   CoordType=Cartesian   XorR=-6   Y=2.75   Z=0   SpecialJt=No   GUID=3992c074-0f74-49bb-b2ef-68ffc5255a47
   Joint=670618   CoordSys=GLOBAL   CoordType=Cartesian   XorR=-3   Y=2.75   Z=0   SpecialJt=No   GUID=e0efae57-2189-4bf0-9482-8c8df061833b
   Joint=670619   CoordSys=GLOBAL   CoordType=Cartesian   XorR=0   Y=2.75   Z=0   SpecialJt=No   GUID=dca4d34a-4281-4276-997e-148439fb5845
   Joint=670620   CoordSys=GLOBAL   CoordType=Cartesian   XorR=3   Y=2.75   Z=0   SpecialJt=No   GUID=a8d6f780-c293-452d-8e54-a7ac9c83ddc7
   Joint=670621   CoordSys=GLOBAL   CoordType=Cartesian   XorR=6   Y=2.75   Z=0   SpecialJt=No   GUID=969a90d2-5f3e-44b0-8906-c000dca06c90
   Joint=670622   CoordSys=GLOBAL   CoordType=Cartesian   XorR=9   Y=2.75   Z=0   SpecialJt=No   GUID=3ee92ecf-fc24-4c89-a2e9-a144e9950840
   Joint=670623   CoordSys=GLOBAL   CoordType=Cartesian   XorR=-9   Y=5   Z=0   SpecialJt=No   GUID=2dbfc9f9-957f-4768-8102-219922777248
   Joint=670624   CoordSys=GLOBAL   CoordType=Cartesian   XorR=-6   Y=5   Z=0   SpecialJt=No   GUID=d4085a81-3749-4722-904d-a7c403cab006
   Joint=670625   CoordSys=GLOBAL   CoordType=Cartesian   XorR=-3   Y=5   Z=0   SpecialJt=No   GUID=48acba0f-1991-4f76-9ee9-2540da775f4a
   Joint=670626   CoordSys=GLOBAL   CoordType=Cartesian   XorR=0   Y=5   Z=0   SpecialJt=No   GUID=c2f59f20-3c07-44d4-ad2d-366239b1cddf
   Joint=670627   CoordSys=GLOBAL   CoordType=Cartesian   XorR=3   Y=5   Z=0   SpecialJt=No   GUID=84c0d149-4c79-4859-b40a-015dcf226d17
   Joint=670628   CoordSys=GLOBAL   CoordType=Cartesian   XorR=6   Y=5   Z=0   SpecialJt=No   GUID=4aac1ec5-0580-4b8f-92c3-435431951bf4
   Joint=670629   CoordSys=GLOBAL   CoordType=Cartesian   XorR=9   Y=5   Z=0   SpecialJt=No   GUID=5febd972-45a1-4431-8ac2-5199aa77f074
   Joint=670630   CoordSys=GLOBAL   CoordType=Cartesian   XorR=-10   Y=-2.75   Z=0   SpecialJt=No   GUID=faf6b3d7-8b45-431e-9f73-4545550a7183
   Joint=670631   CoordSys=GLOBAL   CoordType=Cartesian   XorR=-10   Y=2.75   Z=0   SpecialJt=No   GUID=5ecfde96-d1c1-4bba-bd6c-75a8c4747c6b
   Joint=670632   CoordSys=GLOBAL   CoordType=Cartesian   XorR=10   Y=-2.75   Z=0   SpecialJt=No   GUID=54937a33-8f98-4634-8936-224ade31d599
   Joint=670633   CoordSys=GLOBAL   CoordType=Cartesian   XorR=10   Y=2.75   Z=0   SpecialJt=No   GUID=161c8018-41d4-4878-97c0-8983f1e611b5
   Joint=670634   CoordSys=GLOBAL   CoordType=Cartesian   XorR=-9   Y=-2.75   Z=-3   SpecialJt=No   GUID=3b4295b1-24ba-44ec-9744-d35f6cbb84bf
   Joint=670635   CoordSys=GLOBAL   CoordType=Cartesian   XorR=-9   Y=-2.75   Z=-13.4180229476075   SpecialJt=No   GUID=65dc319d-da6d-4710-a755-afbf337da432
   Joint=670636   CoordSys=GLOBAL   CoordType=Cartesian   XorR=-9   Y=-2.75   Z=-37.9   SpecialJt=No   GUID=bd25fcbb-5f4d-41c0-9482-0de6bc89dd0f
   Joint=670637   CoordSys=GLOBAL   CoordType=Cartesian   XorR=-6   Y=-2.75   Z=-3   SpecialJt=No   GUID=0a09c378-c4b8-4031-8849-2d76bf6de1bb
   Joint=670638   CoordSys=GLOBAL   CoordType=Cartesian   XorR=-6   Y=-2.75   Z=-13.4180229476075   SpecialJt=No   GUID=0aa4498d-426c-45e3-a6b8-7fba47219e5d
   Joint=670639   CoordSys=GLOBAL   CoordType=Cartesian   XorR=-6   Y=-2.75   Z=-37.9   SpecialJt=No   GUID=f7b8ee85-2893-4544-9753-9a8d19143d3d
   Joint=670640   CoordSys=GLOBAL   CoordType=Cartesian   XorR=-3   Y=-2.75   Z=-3   SpecialJt=No   GUID=9fd20118-1068-4687-b23b-141cd97c7034
   Joint=670641   CoordSys=GLOBAL   CoordType=Cartesian   XorR=-3   Y=-2.75   Z=-13.4180229476075   SpecialJt=No   GUID=9ec5bf19-4a08-4a41-bb02-eb8a11739a19
   Joint=670642   CoordSys=GLOBAL   CoordType=Cartesian   XorR=-3   Y=-2.75   Z=-37.9   SpecialJt=No   GUID=a7af44a7-8031-40fa-86d1-f5030bec56fd
   Joint=670643   CoordSys=GLOBAL   CoordType=Cartesian   XorR=0   Y=-2.75   Z=-3   SpecialJt=No   GUID=81ac74d5-92e1-4aba-8a30-2f9445f6ce8f
   Joint=670644   CoordSys=GLOBAL   CoordType=Cartesian   XorR=0   Y=-2.75   Z=-13.4180229476075   SpecialJt=No   GUID=7a051001-6b05-427e-a242-04d8c23ff172
   Joint=670645   CoordSys=GLOBAL   CoordType=Cartesian   XorR=0   Y=-2.75   Z=-37.9   SpecialJt=No   GUID=02fad90d-77fa-4ceb-9516-fc0640648122
   Joint=670646   CoordSys=GLOBAL   CoordType=Cartesian   XorR=3   Y=-2.75   Z=-3   SpecialJt=No   GUID=18286f21-0f21-48fe-98e9-cf8e63a02aca
   Joint=670647   CoordSys=GLOBAL   CoordType=Cartesian   XorR=3   Y=-2.75   Z=-13.4180229476075   SpecialJt=No   GUID=7efd8ccb-165a-4b82-b4c6-c8c3a06f05f1
   Joint=670648   CoordSys=GLOBAL   CoordType=Cartesian   XorR=3   Y=-2.75   Z=-37.9   SpecialJt=No   GUID=de7b620f-3a9a-4a9c-a199-e224da81ec42
   Joint=670649   CoordSys=GLOBAL   CoordType=Cartesian   XorR=6   Y=-2.75   Z=-3   SpecialJt=No   GUID=ebe2280f-f10e-41fc-be21-1adda00d0674
   Joint=670650   CoordSys=GLOBAL   CoordType=Cartesian   XorR=6   Y=-2.75   Z=-13.4180229476075   SpecialJt=No   GUID=f2fc9c6a-f551-4684-a751-dab184568e23
   Joint=670651   CoordSys=GLOBAL   CoordType=Cartesian   XorR=6   Y=-2.75   Z=-37.9   SpecialJt=No   GUID=2df88390-abe7-44cb-a583-5ef88f70ddde
   Joint=670652   CoordSys=GLOBAL   CoordType=Cartesian   XorR=9   Y=-2.75   Z=-3   SpecialJt=No   GUID=e4aef346-4686-4401-b237-b35553f11368
   Joint=670653   CoordSys=GLOBAL   CoordType=Cartesian   XorR=9   Y=-2.75   Z=-13.4180229476075   SpecialJt=No   GUID=b30405cc-65ae-4a49-b333-ae65b0648fd6
   Joint=670654   CoordSys=GLOBAL   CoordType=Cartesian   XorR=9   Y=-2.75   Z=-37.9   SpecialJt=No   GUID=b0788c33-7a66-45d5-b210-062468df367e
   Joint=670655   CoordSys=GLOBAL   CoordType=Cartesian   XorR=-9   Y=2.75   Z=-13.4180229476075   SpecialJt=No   GUID=1bb58b6d-aff5-4b84-8470-f8cf1f1ab509
   Joint=670656   CoordSys=GLOBAL   CoordType=Cartesian   XorR=-9   Y=2.75   Z=-37.9   SpecialJt=No   GUID=47141261-bc76-41a6-930e-c56f0064c45d
   Joint=670657   CoordSys=GLOBAL   CoordType=Cartesian   XorR=-6   Y=2.75   Z=-13.4180229476075   SpecialJt=No   GUID=d5f1f39a-2396-4553-b572-1592144994af
   Joint=670658   CoordSys=GLOBAL   CoordType=Cartesian   XorR=-6   Y=2.75   Z=-37.9   SpecialJt=No   GUID=74546276-bbab-4790-8e77-4f2206ae4c04
   Joint=670659   CoordSys=GLOBAL   CoordType=Cartesian   XorR=-3   Y=2.75   Z=-13.4180229476075   SpecialJt=No   GUID=6ece46a2-c175-4f84-ad4c-0b5e4b44f593
   Joint=670660   CoordSys=GLOBAL   CoordType=Cartesian   XorR=-3   Y=2.75   Z=-37.9   SpecialJt=No   GUID=62b3dc73-cd47-4164-a555-05c1b0edc000
   Joint=670661   CoordSys=GLOBAL   CoordType=Cartesian   XorR=0   Y=2.75   Z=-13.4180229476075   SpecialJt=No   GUID=51e499b5-4e28-44d2-8acb-5192671fbd44
   Joint=670662   CoordSys=GLOBAL   CoordType=Cartesian   XorR=0   Y=2.75   Z=-37.9   SpecialJt=No   GUID=c7e08519-b7df-4203-9e45-99181412b2f1
   Joint=670663   CoordSys=GLOBAL   CoordType=Cartesian   XorR=3   Y=2.75   Z=-13.4180229476075   SpecialJt=No   GUID=e33be8f1-4970-4cf9-aa7c-34f790e43c7e
   Joint=670664   CoordSys=GLOBAL   CoordType=Cartesian   XorR=3   Y=2.75   Z=-37.9   SpecialJt=No   GUID=ace59b59-dbae-42cc-aac7-73ce1e37e13d
   Joint=670665   CoordSys=GLOBAL   CoordType=Cartesian   XorR=6   Y=2.75   Z=-13.4180229476075   SpecialJt=No   GUID=914d697e-6b0e-4dc8-a348-52aadcfc4a94
   Joint=670666   CoordSys=GLOBAL   CoordType=Cartesian   XorR=6   Y=2.75   Z=-37.9   SpecialJt=No   GUID=d5e31851-bd9a-4446-943a-02c224a9769a
   Joint=670667   CoordSys=GLOBAL   CoordType=Cartesian   XorR=9   Y=2.75   Z=-13.4180229476075   SpecialJt=No   GUID=3e94299c-0d9e-427f-b91c-6a7e2c31a0e5
   Joint=670668   CoordSys=GLOBAL   CoordType=Cartesian   XorR=9   Y=2.75   Z=-37.9   SpecialJt=No   GUID=dd87912d-4d6e-4585-ab4c-108f1287989f
   Joint=670669   CoordSys=GLOBAL   CoordType=Cartesian   XorR=-10   Y=-5   Z=0   SpecialJt=No   GUID=9eed28be-bc53-48fb-81d3-3c27dcbeced7
   Joint=670670   CoordSys=GLOBAL   CoordType=Cartesian   XorR=10   Y=-5   Z=0   SpecialJt=No   GUID=bbd6211a-e963-4509-a5e5-7131fe4831ae
   Joint=670671   CoordSys=GLOBAL   CoordType=Cartesian   XorR=-10   Y=5   Z=0   SpecialJt=No   GUID=ac59cf99-6e1a-4a5c-888c-7715fe5636f3
   Joint=670672   CoordSys=GLOBAL   CoordType=Cartesian   XorR=10   Y=5   Z=0   SpecialJt=No   GUID=0c8b76d2-1a01-4347-b6c4-0f3f2c1ad9f1
 
TABLE:  "JOINT PATTERN DEFINITIONS"
   Pattern=Default
 
TABLE:  "JOINT RESTRAINT ASSIGNMENTS"
   Joint=670635   U1=Yes   U2=Yes   U3=No   R1=Yes   R2=Yes   R3=Yes
   Joint=670636   U1=No   U2=No   U3=Yes   R1=No   R2=No   R3=No
   Joint=670638   U1=Yes   U2=Yes   U3=No   R1=Yes   R2=Yes   R3=Yes
   Joint=670639   U1=No   U2=No   U3=Yes   R1=No   R2=No   R3=No
   Joint=670641   U1=Yes   U2=Yes   U3=No   R1=Yes   R2=Yes   R3=Yes
   Joint=670642   U1=No   U2=No   U3=Yes   R1=No   R2=No   R3=No
   Joint=670644   U1=Yes   U2=Yes   U3=No   R1=Yes   R2=Yes   R3=Yes
   Joint=670645   U1=No   U2=No   U3=Yes   R1=No   R2=No   R3=No
   Joint=670647   U1=Yes   U2=Yes   U3=No   R1=Yes   R2=Yes   R3=Yes
   Joint=670648   U1=No   U2=No   U3=Yes   R1=No   R2=No   R3=No
   Joint=670650   U1=Yes   U2=Yes   U3=No   R1=Yes   R2=Yes   R3=Yes
   Joint=670651   U1=No   U2=No   U3=Yes   R1=No   R2=No   R3=No
   Joint=670653   U1=Yes   U2=Yes   U3=No   R1=Yes   R2=Yes   R3=Yes
   Joint=670654   U1=No   U2=No   U3=Yes   R1=No   R2=No   R3=No
   Joint=670655   U1=Yes   U2=Yes   U3=No   R1=Yes   R2=Yes   R3=Yes
   Joint=670656   U1=No   U2=No   U3=Yes   R1=No   R2=No   R3=No
   Joint=670657   U1=Yes   U2=Yes   U3=No   R1=Yes   R2=Yes   R3=Yes
   Joint=670658   U1=No   U2=No   U3=Yes   R1=No   R2=No   R3=No
   Joint=670659   U1=Yes   U2=Yes   U3=No   R1=Yes   R2=Yes   R3=Yes
   Joint=670660   U1=No   U2=No   U3=Yes   R1=No   R2=No   R3=No
   Joint=670661   U1=Yes   U2=Yes   U3=No   R1=Yes   R2=Yes   R3=Yes
   Joint=670662   U1=No   U2=No   U3=Yes   R1=No   R2=No   R3=No
   Joint=670663   U1=Yes   U2=Yes   U3=No   R1=Yes   R2=Yes   R3=Yes
   Joint=670664   U1=No   U2=No   U3=Yes   R1=No   R2=No   R3=No
   Joint=670665   U1=Yes   U2=Yes   U3=No   R1=Yes   R2=Yes   R3=Yes
   Joint=670666   U1=No   U2=No   U3=Yes   R1=No   R2=No   R3=No
   Joint=670667   U1=Yes   U2=Yes   U3=No   R1=Yes   R2=Yes   R3=Yes
   Joint=670668   U1=No   U2=No   U3=Yes   R1=No   R2=No   R3=No
 
TABLE:  "LOAD CASE DEFINITIONS"
   Case=DEAD   Type=LinStatic   InitialCond=Zero   DesTypeOpt="Prog Det"   DesignType=Dead   DesActOpt="Prog Det"   DesignAct=Non-Composite   AutoType=None   RunCase=Yes
   Case=MODAL   Type=LinModal   InitialCond=Zero   DesTypeOpt="Prog Det"   DesignType=Other   DesActOpt="Prog Det"   DesignAct=Other   AutoType=None   RunCase=Yes
   Case=LL   Type=LinStatic   InitialCond=Zero   DesTypeOpt="Prog Det"   DesignType=Live   DesActOpt="Prog Det"   DesignAct="Short-Term Composite"   AutoType=None   RunCase=Yes
 
TABLE:  "LOAD PATTERN DEFINITIONS"
   LoadPat=DEAD   DesignType=Dead   SelfWtMult=1
   LoadPat=LL   DesignType=Live   SelfWtMult=0
 
TABLE:  "MASS SOURCE"
   MassSource=MSSSRC1   Elements=Yes   Masses=Yes   Loads=No   IsDefault=Yes
 
TABLE:  "MATERIAL PROPERTIES 01 - GENERAL"
   Material=A706   Type=Rebar   SymType=Uniaxial   TempDepend=No   Color=Gray8Dark   GUID=30185aab-1311-4f4b-9ffe-ddad707d22d9   Notes="ASTM A706 added 8/23/2025 4:27:57 PM"
   Material=BTCT   Type=Concrete   SymType=Isotropic   TempDepend=No   Color=Blue   Notes="Concrete added 24-Feb-23 16:30:01"
   Material=BTCTCOC   Type=Concrete   SymType=Isotropic   TempDepend=No   Color=Blue   Notes="Concrete added 24-Feb-23 16:30:01"
   Material=Steel   Type=Steel   SymType=Isotropic   TempDepend=No   Color=Magenta   GUID=2f952889-4898-4964-97a4-5fb5c5008d33   Notes="Steel added 8/24/2025 2:51:43 PM"
   Material=Tendon   Type=Tendon   SymType=Uniaxial   TempDepend=No   Color=Yellow   GUID=7dfcd093-823e-4b3a-b96f-35d5bcaf456f   Notes="Tendon added 8/24/2025 2:51:43 PM"
 
TABLE:  "MATERIAL PROPERTIES 02 - BASIC MECHANICAL PROPERTIES"
   Material=A706   UnitWeight=7.84904757236607   UnitMass=0.800380070686609   E1=20389019.1580383   A1=1.16999994421006E-05
   Material=BTCT   UnitWeight=2.40276966501002   UnitMass=0.245014307353044   E1=2900000   G12=1208333.33333333   U12=0.2   A1=9.9E-06
   Material=BTCTCOC   UnitWeight=2.40276966501002   UnitMass=0.245014307353044   E1=3800000000   G12=1583333333.33333   U12=0.2   A1=9.9E-06
   Material=Steel   UnitWeight=7.84904757236607   UnitMass=0.800380070686609   E1=20389019.1580383   G12=7841930.44539935   U12=0.3   A1=1.17E-05
   Material=Tendon   UnitWeight=7.84904757236607   UnitMass=0.800380070686609   E1=20037484.3449687   A1=1.16999994421006E-05
 
TABLE:  "MATERIAL PROPERTIES 03A - STEEL DATA"
   Material=Steel   Fy=35153.4813069626   Fu=45699.5256990514   EffFy=38668.8294376589   EffFu=50269.4782689565   SSCurveOpt=Simple   SSHysType=Kinematic   SHard=0.015   SMax=0.11   SRup=0.17   FinalSlope=-0.1   CoupModType="Von Mises"
 
TABLE:  "MATERIAL PROPERTIES 03B - CONCRETE DATA"
   Material=BTCT   Fc=2812.27850455701   eFc=2812.27850455701   LtWtConc=No   SSCurveOpt=Mander   SSHysType=Takeda   SFc=0.002   SCap=0.005   FinalSlope=-0.1   FAngle=0   DAngle=0   CoupModType="Modified Darwin-Pecknold"
   Material=BTCTCOC   Fc=2812.27850455701   eFc=2812.27850455701   LtWtConc=No   SSCurveOpt=Mander   SSHysType=Takeda   SFc=0.002   SCap=0.005   FinalSlope=-0.1   FAngle=0   DAngle=0   CoupModType="Modified Darwin-Pecknold"
 
TABLE:  "MATERIAL PROPERTIES 03E - REBAR DATA"
   Material=A706   Fy=42184.1775683551   Fu=56245.5700911402   EffFy=46402.5953251907   EffFu=61870.1271002542   SSCurveOpt=Simple   SSHysType=Kinematic   SHard=0.011   SCap=0.11   FinalSlope=-0.1   UseCTDef=No   CoupModType="Von Mises"
 
TABLE:  "MATERIAL PROPERTIES 03F - TENDON DATA"
   Material=Tendon   Fy=172322.365366731   Fu=189828.799057598   SSCurveOpt="270 ksi"   SSHysType=Kinematic   FinalSlope=-0.1   CoupModType="Von Mises"
 
TABLE:  "MATERIAL PROPERTIES 03J - COUPLED NONLINEAR VON MISES DATA"
   Material=A706   YieldStress=46402.5953251907   LinIsoHard=No   LinKinHard=No   NLIsoSaHard=No
   Material=Steel   YieldStress=38668.8294376589   LinIsoHard=No   LinKinHard=No   NLIsoSaHard=No
   Material=Tendon   YieldStress=172322.365366731   LinIsoHard=No   LinKinHard=No   NLIsoSaHard=No
 
TABLE:  "MATERIAL PROPERTIES 06 - DAMPING PARAMETERS"
   Material=A706   ModalRatio=0   VisMass=0   VisStiff=0   HysMass=0   HysStiff=0
   Material=BTCT   ModalRatio=0   VisMass=0   VisStiff=0   HysMass=0   HysStiff=0
   Material=BTCTCOC   ModalRatio=0   VisMass=0   VisStiff=0   HysMass=0   HysStiff=0
   Material=Steel   ModalRatio=0   VisMass=0   VisStiff=0   HysMass=0   HysStiff=0
   Material=Tendon   ModalRatio=0   VisMass=0   VisStiff=0   HysMass=0   HysStiff=0
 
TABLE:  "MATERIAL PROPERTIES 09 - ACCEPTANCE CRITERIA"
   Material=A706   IOTens=0.01   LSTens=0.02   CPTens=0.05   IOComp=-0.005   LSComp=-0.01   CPComp=-0.02
   Material=BTCT   IOTens=0.01   LSTens=0.02   CPTens=0.05   IOComp=-0.003   LSComp=-0.006   CPComp=-0.015   IgnoreTens=Yes
   Material=BTCTCOC   IOTens=0.01   LSTens=0.02   CPTens=0.05   IOComp=-0.003   LSComp=-0.006   CPComp=-0.015   IgnoreTens=Yes
   Material=Steel   IOTens=0.01   LSTens=0.02   CPTens=0.05   IOComp=-0.005   LSComp=-0.01   CPComp=-0.02
   Material=Tendon   IOTens=0.015   LSTens=0.023   CPTens=0.03   IOComp=-0.015   LSComp=-0.023   CPComp=-0.03
 
TABLE:  "OPTIONS - COLORS - DISPLAY"
   DeviceType=Screen   Points=Blue   LinesFrame=Blue   LinesFrmDL=Blue   LinesCable=Green   LinesTendon=Green   SpringLinks=Green   Restraints=Green   Releases=Green   Axes=Cyan   Text=Black   ShadowLines=Gray8Dark   GuideLines=Gray8Dark _
        Highlight=Red   Selection=10504778   AreaFillBot=Red   AreaFillTop=16744703   AreaFillSd=Red   AreaEdge=DarkRed   SolidF1=Red   SolidF2=Blue   SolidF3=Green   SolidF4=Yellow   SolidF5=White   SolidF6=Cyan   SolidEdge=DarkRed _
        Floor=Gray4   Background=White   BGLowLeft=White   BGLowRight=White   BGUpRight=White   Darkness=0.5
   DeviceType=Printer   Points=Gray8Dark   LinesFrame=Black   LinesFrmDL=Gray4   LinesCable=Black   LinesTendon=Black   SpringLinks=Gray8Dark   Restraints=Gray8Dark   Releases=Gray4   Axes=Black   Text=Black   ShadowLines=Gray4 _
        GuideLines=Gray4   Highlight=Black   Selection=Black   AreaFillBot=Gray4   AreaFillTop=Gray8Dark   AreaFillSd=Gray4   AreaEdge=Black   SolidF1=Gray1Light   SolidF2=Gray2   SolidF3=Gray3   SolidF4=Gray4   SolidF5=Gray5 _
        SolidF6=Gray6   SolidEdge=Black   Floor=Gray4   Background=White   BGLowLeft=White   BGLowRight=White   BGUpRight=White   Darkness=0.5
   DeviceType="Color Printer"   Points=Blue   LinesFrame=Blue   LinesFrmDL=Blue   LinesCable=Green   LinesTendon=Green   SpringLinks=Green   Restraints=Green   Releases=Green   Axes=Cyan   Text=Black   ShadowLines=Gray8Dark _
        GuideLines=Gray8Dark   Highlight=Red   Selection=10504778   AreaFillBot=Red   AreaFillTop=16744703   AreaFillSd=Red   AreaEdge=DarkRed   SolidF1=Red   SolidF2=Blue   SolidF3=Green   SolidF4=Yellow   SolidF5=White   SolidF6=Cyan _
        SolidEdge=DarkRed   Floor=Gray4   Background=White   BGLowLeft=White   BGLowRight=White   BGUpRight=White   Darkness=0.5
 
TABLE:  "OPTIONS - COLORS - OUTPUT"
   DeviceType=Screen   Contour1=13107400   Contour2=6553828   Contour3=Red   Contour4=16639   Contour5=Orange   Contour6=43775   Contour7=54527   Contour8=Yellow   Contour9=65408   Contour10=Green   Contour11=8453888   Contour12=Cyan _
        Contour13=16755200   Contour14=16733440   Contour15=Blue   Transpare=0.5   Ratio1=Cyan   Ratio2=Green   Ratio3=Yellow   Ratio4=Orange   Ratio5=Red   RatioNotD=Gray4   RatioNotC=Red   RatioVal1=0.5   RatioVal2=0.7   RatioVal3=0.9 _
        RatioVal4=1   DFillPos=Blue   DFillNeg=Red   DFillRPos=Green   DFillRNeg=Green
   DeviceType=Printer   Contour1=Black   Contour2=3158064   Contour3=4210752   Contour4=5263440   Contour5=6316128   Contour6=7368816   Contour7=Gray8Dark   Contour8=Gray7   Contour9=Gray6   Contour10=Gray5   Contour11=Gray4 _
        Contour12=Gray3   Contour13=Gray2   Contour14=Gray1Light   Contour15=White   Transpare=0   Ratio1=Gray2   Ratio2=Gray4   Ratio3=Gray8Dark   Ratio4=4210752   Ratio5=Black   RatioNotD=Gray4   RatioNotC=Black   RatioVal1=0.5 _
        RatioVal2=0.7   RatioVal3=0.9   RatioVal4=1   DFillPos=Gray8Dark   DFillNeg=Gray8Dark   DFillRPos=4210752   DFillRNeg=4210752
   DeviceType="Color Printer"   Contour1=13107400   Contour2=6553828   Contour3=Red   Contour4=16639   Contour5=Orange   Contour6=43775   Contour7=54527   Contour8=Yellow   Contour9=65408   Contour10=Green   Contour11=8453888 _
        Contour12=Cyan   Contour13=16755200   Contour14=16733440   Contour15=Blue   Transpare=0   Ratio1=Cyan   Ratio2=Green   Ratio3=Yellow   Ratio4=Orange   Ratio5=Red   RatioNotD=Gray4   RatioNotC=Red   RatioVal1=0.5   RatioVal2=0.7 _
        RatioVal3=0.9   RatioVal4=1   DFillPos=Blue   DFillNeg=Red   DFillRPos=Green   DFillRNeg=Green
 
TABLE:  "OVERWRITES - CONCRETE DESIGN - CSA-A233-14"
   Frame=751195   DesignSect="Program Determined"   FrameType="Program Determined"   RLLF=0   XLMajor=0   XLMinor=0   XKMajor=0   XKMinor=0   CmMajor=0   CmMinor=0   DbMajor=0   DbMinor=0   DsMajor=0   DsMinor=0   Rd=0   Ro=0   MaxAggSize=0
   Frame=751196   DesignSect="Program Determined"   FrameType="Program Determined"   RLLF=0   XLMajor=0   XLMinor=0   XKMajor=0   XKMinor=0   CmMajor=0   CmMinor=0   DbMajor=0   DbMinor=0   DsMajor=0   DsMinor=0   Rd=0   Ro=0   MaxAggSize=0
   Frame=751197   DesignSect="Program Determined"   FrameType="Program Determined"   RLLF=0   XLMajor=0   XLMinor=0   XKMajor=0   XKMinor=0   CmMajor=0   CmMinor=0   DbMajor=0   DbMinor=0   DsMajor=0   DsMinor=0   Rd=0   Ro=0   MaxAggSize=0
   Frame=751198   DesignSect="Program Determined"   FrameType="Program Determined"   RLLF=0   XLMajor=0   XLMinor=0   XKMajor=0   XKMinor=0   CmMajor=0   CmMinor=0   DbMajor=0   DbMinor=0   DsMajor=0   DsMinor=0   Rd=0   Ro=0   MaxAggSize=0
   Frame=751199   DesignSect="Program Determined"   FrameType="Program Determined"   RLLF=0   XLMajor=0   XLMinor=0   XKMajor=0   XKMinor=0   CmMajor=0   CmMinor=0   DbMajor=0   DbMinor=0   DsMajor=0   DsMinor=0   Rd=0   Ro=0   MaxAggSize=0
   Frame=751200   DesignSect="Program Determined"   FrameType="Program Determined"   RLLF=0   XLMajor=0   XLMinor=0   XKMajor=0   XKMinor=0   CmMajor=0   CmMinor=0   DbMajor=0   DbMinor=0   DsMajor=0   DsMinor=0   Rd=0   Ro=0   MaxAggSize=0
   Frame=751201   DesignSect="Program Determined"   FrameType="Program Determined"   RLLF=0   XLMajor=0   XLMinor=0   XKMajor=0   XKMinor=0   CmMajor=0   CmMinor=0   DbMajor=0   DbMinor=0   DsMajor=0   DsMinor=0   Rd=0   Ro=0   MaxAggSize=0
   Frame=751202   DesignSect="Program Determined"   FrameType="Program Determined"   RLLF=0   XLMajor=0   XLMinor=0   XKMajor=0   XKMinor=0   CmMajor=0   CmMinor=0   DbMajor=0   DbMinor=0   DsMajor=0   DsMinor=0   Rd=0   Ro=0   MaxAggSize=0
   Frame=751203   DesignSect="Program Determined"   FrameType="Program Determined"   RLLF=0   XLMajor=0   XLMinor=0   XKMajor=0   XKMinor=0   CmMajor=0   CmMinor=0   DbMajor=0   DbMinor=0   DsMajor=0   DsMinor=0   Rd=0   Ro=0   MaxAggSize=0
   Frame=751204   DesignSect="Program Determined"   FrameType="Program Determined"   RLLF=0   XLMajor=0   XLMinor=0   XKMajor=0   XKMinor=0   CmMajor=0   CmMinor=0   DbMajor=0   DbMinor=0   DsMajor=0   DsMinor=0   Rd=0   Ro=0   MaxAggSize=0
   Frame=751205   DesignSect="Program Determined"   FrameType="Program Determined"   RLLF=0   XLMajor=0   XLMinor=0   XKMajor=0   XKMinor=0   CmMajor=0   CmMinor=0   DbMajor=0   DbMinor=0   DsMajor=0   DsMinor=0   Rd=0   Ro=0   MaxAggSize=0
   Frame=751206   DesignSect="Program Determined"   FrameType="Program Determined"   RLLF=0   XLMajor=0   XLMinor=0   XKMajor=0   XKMinor=0   CmMajor=0   CmMinor=0   DbMajor=0   DbMinor=0   DsMajor=0   DsMinor=0   Rd=0   Ro=0   MaxAggSize=0
   Frame=751207   DesignSect="Program Determined"   FrameType="Program Determined"   RLLF=0   XLMajor=0   XLMinor=0   XKMajor=0   XKMinor=0   CmMajor=0   CmMinor=0   DbMajor=0   DbMinor=0   DsMajor=0   DsMinor=0   Rd=0   Ro=0   MaxAggSize=0
   Frame=751208   DesignSect="Program Determined"   FrameType="Program Determined"   RLLF=0   XLMajor=0   XLMinor=0   XKMajor=0   XKMinor=0   CmMajor=0   CmMinor=0   DbMajor=0   DbMinor=0   DsMajor=0   DsMinor=0   Rd=0   Ro=0   MaxAggSize=0
   Frame=751209   DesignSect="Program Determined"   FrameType="Program Determined"   RLLF=0   XLMajor=0   XLMinor=0   XKMajor=0   XKMinor=0   CmMajor=0   CmMinor=0   DbMajor=0   DbMinor=0   DsMajor=0   DsMinor=0   Rd=0   Ro=0   MaxAggSize=0
   Frame=751210   DesignSect="Program Determined"   FrameType="Program Determined"   RLLF=0   XLMajor=0   XLMinor=0   XKMajor=0   XKMinor=0   CmMajor=0   CmMinor=0   DbMajor=0   DbMinor=0   DsMajor=0   DsMinor=0   Rd=0   Ro=0   MaxAggSize=0
   Frame=751211   DesignSect="Program Determined"   FrameType="Program Determined"   RLLF=0   XLMajor=0   XLMinor=0   XKMajor=0   XKMinor=0   CmMajor=0   CmMinor=0   DbMajor=0   DbMinor=0   DsMajor=0   DsMinor=0   Rd=0   Ro=0   MaxAggSize=0
   Frame=751212   DesignSect="Program Determined"   FrameType="Program Determined"   RLLF=0   XLMajor=0   XLMinor=0   XKMajor=0   XKMinor=0   CmMajor=0   CmMinor=0   DbMajor=0   DbMinor=0   DsMajor=0   DsMinor=0   Rd=0   Ro=0   MaxAggSize=0
   Frame=751213   DesignSect="Program Determined"   FrameType="Program Determined"   RLLF=0   XLMajor=0   XLMinor=0   XKMajor=0   XKMinor=0   CmMajor=0   CmMinor=0   DbMajor=0   DbMinor=0   DsMajor=0   DsMinor=0   Rd=0   Ro=0   MaxAggSize=0
   Frame=751214   DesignSect="Program Determined"   FrameType="Program Determined"   RLLF=0   XLMajor=0   XLMinor=0   XKMajor=0   XKMinor=0   CmMajor=0   CmMinor=0   DbMajor=0   DbMinor=0   DsMajor=0   DsMinor=0   Rd=0   Ro=0   MaxAggSize=0
# ... 30 like lines cut
 
TABLE:  "PREFERENCES - ALUMINUM DESIGN - AA 2015"
   THDesign=Envelopes   SRatioLimit=1   Provision=ASD   LatFact=1.33333333333333   UseLatFact=No   Bridge=No   OmegaTy=1.65   OmegaTr=1.95   OmegaC=1.65   OmegaBo=1.65   OmegaBr=1.95   OmegaVo=1.65   OmegaVr=1.95
 
TABLE:  "PREFERENCES - COLD FORMED DESIGN - AISI-ASD96"
   THDesign=Envelopes   FrameType="Braced Frame"   SRatioLimit=1   MaxIter=1   OmegaBS=1.67   OmegaBUS=1.67   OmegaBLTB=1.67   OmegaVS=1.67   OmegaVNS=1.5   OmegaT=1.67   OmegaC=1.8
 
TABLE:  "PREFERENCES - CONCRETE DESIGN - CSA-A233-14"
   THDesign=Envelopes   NumCurves=24   NumPoints=11   MinEccen=Yes   BCCDesign=Yes   CTorsion=Yes   PatLLF=0.75   UFLimit=0.95   PhiS=0.85   PhiC=0.65
 
TABLE:  "PREFERENCES - CONCRETE SHELL DESIGN - EUROCODE 2-2004"
   Country="CEN Default"   GammaS=1.15   GammaC=1.5   AlphaCC=1
 
TABLE:  "PREFERENCES - DIMENSIONAL"
   MergeTol=0.001   FineGrid=0.25   Nudge=0.25   SelectTol=3   SnapTol=12   SLineThick=1   PLineThick=4   MaxFont=8   MinFont=3   AutoZoom=10   ShrinkFact=70   TextFileLen=240
 
TABLE:  "PREFERENCES - STEEL DESIGN - AISC 360-10"
   THDesign=Envelopes   FrameType=SMF   PatLLF=0.75   SRatioLimit=0.95   MaxIter=1   SDC=D   SeisCode=No   SeisLoad=No   ImpFactor=1   SystemRho=1   SystemSds=0.5   SystemR=8   SystemCd=5.5   Omega0=3   Provision=LRFD _
        AMethod="Direct Analysis"   SOMethod="General 2nd Order"   SRMethod="Tau-b Fixed"   NLCoeff=0.002   PhiB=0.9   PhiC=0.9   PhiTY=0.9   PhiTF=0.75   PhiV=0.9   PhiVRolledI=1   PhiVT=0.9   PlugWeld=Yes   HSSWelding=ERW   HSSReduceT=No _
        CheckDefl=No   DLRat=120   SDLAndLLRat=120   LLRat=360   TotalRat=240   NetRat=240
 
TABLE:  "PROGRAM CONTROL"
   ProgramName=SAP2000   Version=24.0.0   CurrUnits="Tonf, m, C"   SteelCode="AISC 360-10"   ConcCode="CSA A23.3-14"   AlumCode="AA 2015"   ColdCode=AISI-ASD96   RegenHinge=Yes
 
TABLE:  "PROJECT INFORMATION"
   Item="Company Name"   Data=po
   Item="Client Name"
   Item="Project Name"
   Item="Project Number"
   Item="Model Name"
   Item="Model Description"
   Item="Revision Number"
   Item="Frame Type"
   Item=Engineer
   Item=Checker
   Item=Supervisor
   Item="Issue Code"
   Item="Design Code"
 
TABLE:  "REBAR SIZES"
   RebarID=#2   Area=3.2258E-05   Diameter=0.00635
   RebarID=#3   Area=7.09675996154547E-05   Diameter=0.009525
   RebarID=#4   Area=0.000129032001922727   Diameter=0.0127
   RebarID=#5   Area=0.000199999601538181   Diameter=0.015875
   RebarID=#6   Area=0.000283870398461819   Diameter=0.01905
   RebarID=#7   Area=0.000387096015381813   Diameter=0.022225
   RebarID=#8   Area=0.000509676413843632   Diameter=0.0254
   RebarID=#9   Area=0.00064516   Diameter=0.0286512005329132
   RebarID=#10   Area=0.00081935318769455   Diameter=0.0322579995155334
   RebarID=#11   Area=0.00100644956308365   Diameter=0.0358139991521835
   RebarID=#14   Area=0.00145161   Diameter=0.0430021989583969
   RebarID=#18   Area=0.00258064   Diameter=0.0573277992248535
   RebarID=10M   Area=0.000100000004162606   Diameter=0.0113000003604438
   RebarID=15M   Area=0.000200000008325212   Diameter=0.0160000002402959
   RebarID=20M   Area=0.000300000012487818   Diameter=0.0195000002928606
   RebarID=25M   Area=0.000500000020813031   Diameter=0.0252000011414055
   RebarID=30M   Area=0.000700000029138243   Diameter=0.0299000000675832
   RebarID=35M   Area=0.00100000004162606   Diameter=0.0357000012990997
   RebarID=45M   Area=0.00150000006243909   Diameter=0.0437000014192476
   RebarID=55M   Area=0.00250000010406515   Diameter=0.056400002372922
   RebarID=6d   Area=2.83000004150781E-05   Diameter=0.00600000009011096
   RebarID=8d   Area=5.03000013308514E-05   Diameter=0.00800000012014795
   RebarID=10d   Area=7.85000032676458E-05   Diameter=0.0100000001501849
   RebarID=12d   Area=0.000113000004703745   Diameter=0.0120000001802219
   RebarID=14d   Area=0.000154000006410413   Diameter=0.0140000002102589
   RebarID=16d   Area=0.000201000008366838   Diameter=0.0160000002402959
   RebarID=20d   Area=0.000314000013070583   Diameter=0.0200000003003699
   RebarID=25d   Area=0.000491000020438396   Diameter=0.0250000003754623
   RebarID=26d   Area=0.000531000022103439   Diameter=0.0260000003904808
   RebarID=28d   Area=0.000616000025641654   Diameter=0.0280000004205178
   RebarID=N12   Area=0.000113000004703745   Diameter=0.0120000001802219
   RebarID=N16   Area=0.000201000008366838   Diameter=0.0160000002402959
   RebarID=N20   Area=0.000314000013070583   Diameter=0.0200000003003699
   RebarID=N24   Area=0.00045200001881498   Diameter=0.0240000003604438
   RebarID=N28   Area=0.000616000025641654   Diameter=0.0280000004205178
   RebarID=N32   Area=0.000804000033467353   Diameter=0.0320000004805918
   RebarID=N36   Area=0.00102000004245858   Diameter=0.0360000005406658
 
TABLE:  "SOLID PROPERTY DEFINITIONS"
   SolidProp=Solid1   Material=BTCT   MatAngleA=0   MatAngleB=0   MatAngleC=0   InComp=Yes   Color=Gray8Dark
 
END TABLE DATA
