File D:\ResearchLab\02_Projects\Tap chi XD_SFOA\code\SOO_MPJ\MPJ_Sap\VerifyBeam_tmp\MPJ_verify.$2k was saved on m/d/yy at h:mm:ss
 
TABLE:  "ACTIVE DEGREES OF FREEDOM"
   UX=Yes   UY=Yes   UZ=Yes   RX=Yes   RY=Yes   RZ=Yes
 
TABLE:  "ANALYSIS OPTIONS"
   Solver=Advanced   SolverProc=Auto   Force32Bit=No   StiffCase=None   GeomMod=None   HingeOpt="In Elements"   NumAThreads=0   MaxFileSize=0   NumDThreads=0   NumRThreads=0   UseMMFiles="Program Determined"   AllowDiff=No
 
TABLE:  "AREA AUTO MESH ASSIGNMENTS"
   Area=16   MeshType="Number of Elements"   MeshGroup=ALL   Number1=3   Number2=3   LocalEdge=No   LocalFace=No   SuppEdge=No   SuppFace=No   SubMesh=No
   Area=17   MeshType="Number of Elements"   MeshGroup=ALL   Number1=3   Number2=3   LocalEdge=No   LocalFace=No   SuppEdge=No   SuppFace=No   SubMesh=No
   Area=18   MeshType="Number of Elements"   MeshGroup=ALL   Number1=3   Number2=3   LocalEdge=No   LocalFace=No   SuppEdge=No   SuppFace=No   SubMesh=No
   Area=19   MeshType="Number of Elements"   MeshGroup=ALL   Number1=3   Number2=3   LocalEdge=No   LocalFace=No   SuppEdge=No   SuppFace=No   SubMesh=No
   Area=20   MeshType="Number of Elements"   MeshGroup=ALL   Number1=3   Number2=3   LocalEdge=No   LocalFace=No   SuppEdge=No   SuppFace=No   SubMesh=No
   Area=21   MeshType="Number of Elements"   MeshGroup=ALL   Number1=3   Number2=3   LocalEdge=No   LocalFace=No   SuppEdge=No   SuppFace=No   SubMesh=No
   Area=22   MeshType="Number of Elements"   MeshGroup=ALL   Number1=3   Number2=3   LocalEdge=No   LocalFace=No   SuppEdge=No   SuppFace=No   SubMesh=No
   Area=23   MeshType="Number of Elements"   MeshGroup=ALL   Number1=3   Number2=3   LocalEdge=No   LocalFace=No   SuppEdge=No   SuppFace=No   SubMesh=No
   Area=24   MeshType="Number of Elements"   MeshGroup=ALL   Number1=3   Number2=3   LocalEdge=No   LocalFace=No   SuppEdge=No   SuppFace=No   SubMesh=No
   Area=25   MeshType="Number of Elements"   MeshGroup=ALL   Number1=3   Number2=3   LocalEdge=No   LocalFace=No   SuppEdge=No   SuppFace=No   SubMesh=No
   Area=26   MeshType="Number of Elements"   MeshGroup=ALL   Number1=3   Number2=3   LocalEdge=No   LocalFace=No   SuppEdge=No   SuppFace=No   SubMesh=No
   Area=27   MeshType="Number of Elements"   MeshGroup=ALL   Number1=3   Number2=3   LocalEdge=No   LocalFace=No   SuppEdge=No   SuppFace=No   SubMesh=No
   Area=28   MeshType="Number of Elements"   MeshGroup=ALL   Number1=3   Number2=3   LocalEdge=No   LocalFace=No   SuppEdge=No   SuppFace=No   SubMesh=No
   Area=29   MeshType="Number of Elements"   MeshGroup=ALL   Number1=3   Number2=3   LocalEdge=No   LocalFace=No   SuppEdge=No   SuppFace=No   SubMesh=No
   Area=30   MeshType="Number of Elements"   MeshGroup=ALL   Number1=3   Number2=3   LocalEdge=No   LocalFace=No   SuppEdge=No   SuppFace=No   SubMesh=No
   Area=31   MeshType="Number of Elements"   MeshGroup=ALL   Number1=3   Number2=3   LocalEdge=No   LocalFace=No   SuppEdge=No   SuppFace=No   SubMesh=No
   Area=32   MeshType="Number of Elements"   MeshGroup=ALL   Number1=3   Number2=3   LocalEdge=No   LocalFace=No   SuppEdge=No   SuppFace=No   SubMesh=No
   Area=33   MeshType="Number of Elements"   MeshGroup=ALL   Number1=3   Number2=3   LocalEdge=No   LocalFace=No   SuppEdge=No   SuppFace=No   SubMesh=No
   Area=34   MeshType="Number of Elements"   MeshGroup=ALL   Number1=3   Number2=3   LocalEdge=No   LocalFace=No   SuppEdge=No   SuppFace=No   SubMesh=No
   Area=35   MeshType="Number of Elements"   MeshGroup=ALL   Number1=3   Number2=3   LocalEdge=No   LocalFace=No   SuppEdge=No   SuppFace=No   SubMesh=No
# ... 20 like lines cut
 
TABLE:  "AREA LOADS - UNIFORM"
   Area=16   LoadPat=LL   CoordSys=GLOBAL   Dir=Gravity   UnifLoad=1.00034158457019
   Area=17   LoadPat=LL   CoordSys=GLOBAL   Dir=Gravity   UnifLoad=1.00034158457019
   Area=18   LoadPat=LL   CoordSys=GLOBAL   Dir=Gravity   UnifLoad=1.00034158457019
   Area=19   LoadPat=LL   CoordSys=GLOBAL   Dir=Gravity   UnifLoad=1.00034158457019
   Area=20   LoadPat=LL   CoordSys=GLOBAL   Dir=Gravity   UnifLoad=1.00034158457019
   Area=21   LoadPat=LL   CoordSys=GLOBAL   Dir=Gravity   UnifLoad=1.00034158457019
   Area=22   LoadPat=LL   CoordSys=GLOBAL   Dir=Gravity   UnifLoad=1.00034158457019
   Area=23   LoadPat=LL   CoordSys=GLOBAL   Dir=Gravity   UnifLoad=1.00034158457019
   Area=24   LoadPat=LL   CoordSys=GLOBAL   Dir=Gravity   UnifLoad=1.00034158457019
   Area=25   LoadPat=LL   CoordSys=GLOBAL   Dir=Gravity   UnifLoad=1.00034158457019
   Area=26   LoadPat=LL   CoordSys=GLOBAL   Dir=Gravity   UnifLoad=1.00034158457019
   Area=27   LoadPat=LL   CoordSys=GLOBAL   Dir=Gravity   UnifLoad=1.00034158457019
   Area=28   LoadPat=LL   CoordSys=GLOBAL   Dir=Gravity   UnifLoad=1.00034158457019
   Area=29   LoadPat=LL   CoordSys=GLOBAL   Dir=Gravity   UnifLoad=1.00034158457019
   Area=30   LoadPat=LL   CoordSys=GLOBAL   Dir=Gravity   UnifLoad=1.00034158457019
   Area=31   LoadPat=LL   CoordSys=GLOBAL   Dir=Gravity   UnifLoad=1.00034158457019
   Area=32   LoadPat=LL   CoordSys=GLOBAL   Dir=Gravity   UnifLoad=1.00034158457019
   Area=33   LoadPat=LL   CoordSys=GLOBAL   Dir=Gravity   UnifLoad=1.00034158457019
   Area=34   LoadPat=LL   CoordSys=GLOBAL   Dir=Gravity   UnifLoad=1.00034158457019
   Area=35   LoadPat=LL   CoordSys=GLOBAL   Dir=Gravity   UnifLoad=1.00034158457019
# ... 20 like lines cut
 
TABLE:  "AREA SECTION ASSIGNMENTS"
   Area=16   Section=Deck   MatProp=Default
   Area=17   Section=Deck   MatProp=Default
   Area=18   Section=Deck   MatProp=Default
   Area=19   Section=Deck   MatProp=Default
   Area=20   Section=Deck   MatProp=Default
   Area=21   Section=Deck   MatProp=Default
   Area=22   Section=Deck   MatProp=Default
   Area=23   Section=Deck   MatProp=Default
   Area=24   Section=Deck   MatProp=Default
   Area=25   Section=Deck   MatProp=Default
   Area=26   Section=Deck   MatProp=Default
   Area=27   Section=Deck   MatProp=Default
   Area=28   Section=Deck   MatProp=Default
   Area=29   Section=Deck   MatProp=Default
   Area=30   Section=Deck   MatProp=Default
   Area=31   Section=Deck   MatProp=Default
   Area=32   Section=Deck   MatProp=Default
   Area=33   Section=Deck   MatProp=Default
   Area=34   Section=Deck   MatProp=Default
   Area=35   Section=Deck   MatProp=Default
# ... 20 like lines cut
 
TABLE:  "AREA SECTION PROPERTIES"
   Section=Deck   Material=BTCT   MatAngle=0   AreaType=Shell   Type=Shell-Thin   DrillDOF=Yes   Thickness=0.3   BendThick=0.3   Color=Green   F11Mod=1   F22Mod=1   F12Mod=1   M11Mod=1   M22Mod=1   M12Mod=1   V13Mod=1   V23Mod=1   MMod=1 _
        WMod=1   Notes="Added 24-Feb-23 16:56:47"
 
TABLE:  "AREA SECTION PROPERTY DESIGN PARAMETERS"
   Section=Deck   RebarMat=None   RebarOpt=Default
 
TABLE:  "AREA SECTION PROPERTY - TIME DEPENDENT"
   Section=Deck   TypeSize=User   AutoSFSize=1   UserValSize=0.1
 
TABLE:  "AUTO COMBINATION OPTION DATA 01 - GENERAL"
   DesignType=Concrete   AutoGen=Yes
 
TABLE:  "AUTO COMBINATION OPTION DATA 02 - USER DATA"
   DesignType=Concrete   LSType=Strength   LCName=DEAD
   DesignType=Concrete   LSType=Strength   LCName=LL
 
TABLE:  "AUTO WAVE 3 - WAVE CHARACTERISTICS - GENERAL"
   WaveChar=Default   WaveType="From Theory"   KinFactor=1   SWaterDepth=45   WaveHeight=18   WavePeriod=12   WaveTheory=Linear
 
TABLE:  "CASE - MODAL 1 - GENERAL"
   Case=MODAL   ModeType=Eigen   MaxNumModes=12   MinNumModes=1   EigenShift=0   EigenCutoff=0   EigenTol=1E-09   AutoShift=Yes
 
TABLE:  "CASE - STATIC 1 - LOAD ASSIGNMENTS"
   Case=DEAD   LoadType="Load pattern"   LoadName=DEAD   LoadSF=1
   Case=LL   LoadType="Load pattern"   LoadName=LL   LoadSF=1
 
TABLE:  "COMBINATION DEFINITIONS"
   ComboName=COMB1   ComboType="Linear Add"   AutoDesign=No   CaseName=DEAD   ScaleFactor=1   SteelDesign=None   ConcDesign=Strength   AlumDesign=None   ColdDesign=None
   ComboName=COMB2   ComboType="Linear Add"   AutoDesign=No   CaseName=DEAD   ScaleFactor=1   SteelDesign=None   ConcDesign=Strength   AlumDesign=None   ColdDesign=None
   ComboName=COMB2   CaseName=LL   ScaleFactor=1
   ComboName=BAO   ComboType=Envelope   AutoDesign=No   CaseName=COMB1   ScaleFactor=1   SteelDesign=None   ConcDesign=Strength   AlumDesign=None   ColdDesign=None
   ComboName=BAO   CaseName=COMB2   ScaleFactor=1
   ComboName=DCON1   ComboType="Linear Add"   AutoDesign=Yes   CaseName=DEAD   ScaleFactor=1.4   SteelDesign=None   ConcDesign=Strength   AlumDesign=None   ColdDesign=None   GUID=bb4fff9a-98b5-44d1-9fde-34d92700a8e9   Notes="Dead Only; Strength"
   ComboName=DCON2   ComboType="Linear Add"   AutoDesign=Yes   CaseName=DEAD   ScaleFactor=1.25   SteelDesign=None   ConcDesign=Strength   AlumDesign=None   ColdDesign=None   GUID=505bcda7-6fac-4dd0-b03e-c591d1ffc6ce   Notes="Dead + Live; Strength"
   ComboName=DCON2   CaseName=LL   ScaleFactor=1.5
 
TABLE:  "CONNECTIVITY - AREA"
   Area=16   Joint1=158   Joint2=87   Joint3=46   Joint4=45   GUID=f3583dcd-586e-4fa8-be95-af9d402da167
   Area=17   Joint1=45   Joint2=46   Joint3=48   Joint4=47   GUID=a4049a0c-7634-4cd1-a71b-8ed8ac06e6f3
   Area=18   Joint1=47   Joint2=48   Joint3=50   Joint4=49   GUID=6544b57f-1266-4976-9831-0b8a782c2c7b
   Area=19   Joint1=49   Joint2=50   Joint3=52   Joint4=51   GUID=42a5fa4b-17cd-43f9-9d23-c832b4de4c66
   Area=20   Joint1=51   Joint2=52   Joint3=54   Joint4=53   GUID=8393df51-1968-4d0a-b6ea-dcf86414e66b
   Area=21   Joint1=53   Joint2=54   Joint3=56   Joint4=55   GUID=04325734-78b2-46a2-b781-f02e043fc846
   Area=22   Joint1=55   Joint2=56   Joint3=58   Joint4=57   GUID=f85a59fe-bfa8-47e6-bec0-97bbb54f6a4c
   Area=23   Joint1=57   Joint2=58   Joint3=91   Joint4=159   GUID=33cea5d2-ba90-4af4-a57a-a495f43787c4
   Area=24   Joint1=87   Joint2=88   Joint3=59   Joint4=46   GUID=ce3ddeb3-07d3-4e91-b847-da1aa2b540fe
   Area=25   Joint1=46   Joint2=59   Joint3=60   Joint4=48   GUID=9bfa082e-b8fd-4da0-826f-2c6c17225d0e
   Area=26   Joint1=48   Joint2=60   Joint3=61   Joint4=50   GUID=d02e66ec-9631-48e1-9b4e-4e41226967e1
   Area=27   Joint1=50   Joint2=61   Joint3=62   Joint4=52   GUID=810f9328-d8a6-4eee-bd6c-5ebd52bc96df
   Area=28   Joint1=52   Joint2=62   Joint3=63   Joint4=54   GUID=f4781a2a-c6a0-4755-90b0-76745cec33db
   Area=29   Joint1=54   Joint2=63   Joint3=64   Joint4=56   GUID=5a3b1d03-fc6d-4d1f-b33b-09fc1e92d77e
   Area=30   Joint1=56   Joint2=64   Joint3=65   Joint4=58   GUID=b5ab50d0-9f19-4233-bbdd-18f8c3656161
   Area=31   Joint1=58   Joint2=65   Joint3=92   Joint4=91   GUID=92839a9c-35d7-4fea-822f-5db503000a5d
   Area=32   Joint1=88   Joint2=89   Joint3=66   Joint4=59   GUID=a05ff98b-cbea-45d6-8c04-d30e22828a3c
   Area=33   Joint1=59   Joint2=66   Joint3=67   Joint4=60   GUID=636b44d1-1058-4f18-9bc4-5fba82a5a58e
   Area=34   Joint1=60   Joint2=67   Joint3=68   Joint4=61   GUID=70ef3c58-d13d-401c-96e0-81d22e8777f6
   Area=35   Joint1=61   Joint2=68   Joint3=69   Joint4=62   GUID=88cfd2d7-1dab-4427-97de-39008548f9a1
   Area=36   Joint1=62   Joint2=69   Joint3=70   Joint4=63   GUID=074c929b-f3f3-4dd8-8342-10c9aa0b49ec
   Area=37   Joint1=63   Joint2=70   Joint3=71   Joint4=64   GUID=2fab42d9-0e19-42a9-a7f5-5cfbd1131dc1
   Area=38   Joint1=64   Joint2=71   Joint3=72   Joint4=65   GUID=d563886d-25df-41e7-baa7-550ad5fb300f
   Area=39   Joint1=65   Joint2=72   Joint3=93   Joint4=92   GUID=ddd7fbcd-47a6-4a96-a2ac-61ae39298265
   Area=40   Joint1=89   Joint2=90   Joint3=73   Joint4=66   GUID=575c5c0d-1543-44c7-888e-3011694ee87b
   Area=41   Joint1=66   Joint2=73   Joint3=74   Joint4=67   GUID=d5869c3e-722f-4b9f-9cd1-78d714485f28
   Area=42   Joint1=67   Joint2=74   Joint3=75   Joint4=68   GUID=824140cb-aad8-4a9d-aba9-798942b0e5bd
   Area=43   Joint1=68   Joint2=75   Joint3=76   Joint4=69   GUID=26d5281d-d1c1-49a7-b230-aac6656d2a2e
   Area=44   Joint1=69   Joint2=76   Joint3=77   Joint4=70   GUID=7523af67-e76f-48a0-9610-5072b4488d57
   Area=45   Joint1=70   Joint2=77   Joint3=78   Joint4=71   GUID=1a253362-5232-456e-bae0-cec01eed661c
   Area=46   Joint1=71   Joint2=78   Joint3=79   Joint4=72   GUID=74d2b491-fe17-455d-b1ca-e3f5ba748b0f
   Area=47   Joint1=72   Joint2=79   Joint3=94   Joint4=93   GUID=bc9472f5-4e64-428c-be19-70f813834a3b
   Area=48   Joint1=90   Joint2=160   Joint3=80   Joint4=73   GUID=1ecc3207-f6ab-4101-8bd8-de42cd76b058
   Area=49   Joint1=73   Joint2=80   Joint3=81   Joint4=74   GUID=bed6af04-e75e-4140-b0ca-de774776362a
   Area=50   Joint1=74   Joint2=81   Joint3=82   Joint4=75   GUID=a9e534dd-883e-4098-b12a-aeb04f3ce065
   Area=51   Joint1=75   Joint2=82   Joint3=83   Joint4=76   GUID=df5d3636-cb4e-464e-b776-e3b5f153268b
   Area=52   Joint1=76   Joint2=83   Joint3=84   Joint4=77   GUID=22885519-3a4d-4b6f-a1a9-ca4408f49ffc
   Area=53   Joint1=77   Joint2=84   Joint3=85   Joint4=78   GUID=b172531f-1059-4964-abaf-185b74020bc5
   Area=54   Joint1=78   Joint2=85   Joint3=86   Joint4=79   GUID=def77d54-8781-4d9f-b5a1-111aef4ea822
   Area=55   Joint1=79   Joint2=86   Joint3=161   Joint4=94   GUID=e9ed7c6a-6d23-4211-87a1-b6d380aacf65
 
TABLE:  "CONNECTIVITY - FRAME"
   Frame=46   JointI=45   JointJ=46   IsCurved=No   GUID=70d80183-689d-49c4-be22-5e74e1c6f75a
   Frame=47   JointI=47   JointJ=48   IsCurved=No   GUID=29774b73-9f77-44da-9be6-805405981774
   Frame=48   JointI=49   JointJ=50   IsCurved=No   GUID=e43d6707-4fa8-47e4-b00d-46c63c7d4531
   Frame=49   JointI=51   JointJ=52   IsCurved=No   GUID=9913a528-3dce-4eda-bea5-460fbce86e6c
   Frame=50   JointI=53   JointJ=54   IsCurved=No   GUID=668b5c47-5d9f-4c48-8b6f-eb17651ff379
   Frame=51   JointI=55   JointJ=56   IsCurved=No   GUID=cdc28c69-241a-4de5-92bb-c2474559e710
   Frame=52   JointI=57   JointJ=58   IsCurved=No   GUID=5a6e1a03-295a-48cd-8daf-2297088b41c5
   Frame=53   JointI=46   JointJ=59   IsCurved=No   GUID=bd6f861b-3663-4266-8f28-dbedc136bc06
   Frame=54   JointI=48   JointJ=60   IsCurved=No   GUID=062237f3-15f7-418f-b0bf-e2c3c4db96da
   Frame=55   JointI=50   JointJ=61   IsCurved=No   GUID=ddf26129-84af-43b3-b236-cb1d28ea70f3
   Frame=56   JointI=52   JointJ=62   IsCurved=No   GUID=327dca42-ccb0-4864-a417-b0781e92490c
   Frame=57   JointI=54   JointJ=63   IsCurved=No   GUID=44ed8e5f-ecd8-4128-a777-6973a50c83c9
   Frame=58   JointI=56   JointJ=64   IsCurved=No   GUID=b23a140e-3013-4738-ac3d-db6f8ed51c91
   Frame=59   JointI=58   JointJ=65   IsCurved=No   GUID=4823172f-ee97-4836-80ea-373fe0d9446f
   Frame=60   JointI=59   JointJ=66   IsCurved=No   GUID=744f139d-4b76-4e19-bc49-d645a920cb65
   Frame=61   JointI=60   JointJ=67   IsCurved=No   GUID=1da3d81b-5fa4-4a02-ae44-a56c33203aed
   Frame=62   JointI=61   JointJ=68   IsCurved=No   GUID=3e9ea115-82a4-4464-a057-f8a4c981a4ff
   Frame=63   JointI=62   JointJ=69   IsCurved=No   GUID=df8356bd-8b43-4917-b84e-e48c67ab7dc3
   Frame=64   JointI=63   JointJ=70   IsCurved=No   GUID=22bd3782-1d1a-4671-b47e-b16d867f5d35
   Frame=65   JointI=64   JointJ=71   IsCurved=No   GUID=562861b5-cea9-46a3-b458-18a3d6a83280
   Frame=66   JointI=65   JointJ=72   IsCurved=No   GUID=7f11ed96-f595-40e3-bbcf-93fdf269bed7
   Frame=67   JointI=66   JointJ=73   IsCurved=No   GUID=a748d883-cd4c-430d-b979-93f972882061
   Frame=68   JointI=67   JointJ=74   IsCurved=No   GUID=f90bb85d-cb75-4640-a1d5-c5765153506e
   Frame=69   JointI=68   JointJ=75   IsCurved=No   GUID=102995bb-eb69-432b-b808-ed91953bb0e1
   Frame=70   JointI=69   JointJ=76   IsCurved=No   GUID=406407ba-7281-46be-8844-57c50fdbae08
   Frame=71   JointI=70   JointJ=77   IsCurved=No   GUID=031085e1-df9b-4e76-868e-c5f151b30440
   Frame=72   JointI=71   JointJ=78   IsCurved=No   GUID=c6aa86db-3fbe-48b9-be00-5a9e092f9ad2
   Frame=73   JointI=72   JointJ=79   IsCurved=No   GUID=8f699a77-6276-4ba9-8f7d-cb258c657875
   Frame=74   JointI=73   JointJ=80   IsCurved=No   GUID=550c463c-cbab-4046-91d4-092c12906726
   Frame=75   JointI=74   JointJ=81   IsCurved=No   GUID=2db92e9b-c1b8-44e4-9d1f-b136bb85a1b7
   Frame=76   JointI=75   JointJ=82   IsCurved=No   GUID=cfa4455f-b4fd-4037-b306-2d4359863528
   Frame=77   JointI=76   JointJ=83   IsCurved=No   GUID=c82f4b4c-0210-426b-8aff-f1b02d005671
   Frame=78   JointI=77   JointJ=84   IsCurved=No   GUID=8d108482-7487-4fdc-9f92-078a8a31ef9b
   Frame=79   JointI=78   JointJ=85   IsCurved=No   GUID=3c0bc158-6965-491f-ba6d-fe2c82011623
   Frame=80   JointI=79   JointJ=86   IsCurved=No   GUID=7c164374-444c-4bb4-92e7-c94ecd6c3140
   Frame=81   JointI=87   JointJ=46   IsCurved=No   GUID=14a20c68-9a3d-4deb-80a0-e9d5647fbde5
   Frame=82   JointI=88   JointJ=59   IsCurved=No   GUID=870f1f87-bd6e-41cc-8d28-d252ea48985b
   Frame=83   JointI=89   JointJ=66   IsCurved=No   GUID=ae32c926-ab94-4dcb-b3c7-cdb3a901bf8a
   Frame=84   JointI=90   JointJ=73   IsCurved=No   GUID=c3ae907d-28eb-4ae3-8a18-af9062762240
   Frame=85   JointI=46   JointJ=48   IsCurved=No   GUID=b81960c9-8acf-46a4-a492-19a1f4ae4eec
   Frame=86   JointI=59   JointJ=60   IsCurved=No   GUID=f4b12e10-a14a-4a2b-8410-b9804b5cad9d
   Frame=87   JointI=66   JointJ=67   IsCurved=No   GUID=5cef64d7-8fc6-406a-9b9a-5239b496a3e9
   Frame=88   JointI=73   JointJ=74   IsCurved=No   GUID=5c8dac90-b535-4164-8d98-ab3d6b0e64ba
   Frame=89   JointI=48   JointJ=50   IsCurved=No   GUID=ff11387a-e918-487b-a34c-fae844a750a8
   Frame=90   JointI=60   JointJ=61   IsCurved=No   GUID=b779c396-5140-4eb3-bc57-eda4ac10f3f7
   Frame=91   JointI=67   JointJ=68   IsCurved=No   GUID=ac8863e0-f9f7-4c30-b852-77b58123d59c
   Frame=92   JointI=74   JointJ=75   IsCurved=No   GUID=cd06d529-2a6d-4850-b609-6512dd195165
   Frame=93   JointI=50   JointJ=52   IsCurved=No   GUID=7daefec2-8488-4538-972c-2a267fc9bb51
   Frame=94   JointI=61   JointJ=62   IsCurved=No   GUID=d15587c7-9998-4820-9c4b-8c1d831c1679
   Frame=95   JointI=68   JointJ=69   IsCurved=No   GUID=b078bbd1-5891-4db3-bfd5-33ef6999d88c
   Frame=96   JointI=75   JointJ=76   IsCurved=No   GUID=83824bf0-388d-47b0-b1b0-372fef332c8f
   Frame=97   JointI=52   JointJ=54   IsCurved=No   GUID=769d9a15-9878-48c8-9a30-706c40b5e0b1
   Frame=98   JointI=62   JointJ=63   IsCurved=No   GUID=2b1cdcb1-220c-46b4-a1a5-ee4af24a01ab
   Frame=99   JointI=69   JointJ=70   IsCurved=No   GUID=83f72593-34f4-474f-8f4e-dbc9d2674639
   Frame=100   JointI=76   JointJ=77   IsCurved=No   GUID=b143aa3d-cab6-4dd8-8d44-70d453278120
   Frame=101   JointI=54   JointJ=56   IsCurved=No   GUID=5bf1a343-b902-4c0b-a253-05c6ff03fa19
   Frame=102   JointI=63   JointJ=64   IsCurved=No   GUID=4bce06db-9123-4a5e-9051-6aced2ea0782
   Frame=103   JointI=70   JointJ=71   IsCurved=No   GUID=fa0adb4c-ae10-4623-b9ec-b2723458fbdb
   Frame=104   JointI=77   JointJ=78   IsCurved=No   GUID=4f09a094-86b4-46b2-bf79-f528e74b6133
   Frame=105   JointI=56   JointJ=58   IsCurved=No   GUID=eeae2162-3741-4ad5-b4b9-ccb7b546ae6b
   Frame=106   JointI=64   JointJ=65   IsCurved=No   GUID=39279893-7e7b-4bd9-8db8-45dc581e8da4
   Frame=107   JointI=71   JointJ=72   IsCurved=No   GUID=39820106-2c87-463f-8223-5c1ce4cbc9da
   Frame=108   JointI=78   JointJ=79   IsCurved=No   GUID=f7855678-aaa7-4374-bb2d-249f2e4c6a30
   Frame=109   JointI=58   JointJ=91   IsCurved=No   GUID=b3201a45-ae70-48c1-98df-11adea5680f1
   Frame=110   JointI=65   JointJ=92   IsCurved=No   GUID=13f8e7bd-c00d-41d7-9dcc-686d6c0226f3
   Frame=111   JointI=72   JointJ=93   IsCurved=No   GUID=b71ef696-fbc4-4dfe-bc67-5b1e83d9c259
   Frame=112   JointI=79   JointJ=94   IsCurved=No   GUID=aa24aba9-cd38-4ead-9689-9aea66e77dad
   Frame=113   JointI=46   JointJ=95   IsCurved=No   GUID=3b6b5d2c-80e1-43f7-8971-0a423ea47129
   Frame=114   JointI=95   JointJ=96   IsCurved=No   GUID=75a84f56-a972-4ab8-bcb7-f2184764a34e
   Frame=115   JointI=96   JointJ=97   IsCurved=No   GUID=9002ccd7-6d92-47d8-9125-e3bf156e704c
   Frame=116   JointI=48   JointJ=98   IsCurved=No   GUID=a27ff1f1-65a4-45e2-9ad9-5ae906ea3559
   Frame=117   JointI=98   JointJ=99   IsCurved=No   GUID=9bc9deab-9c2d-49e7-afac-6b59127017a1
   Frame=118   JointI=99   JointJ=100   IsCurved=No   GUID=38410281-1fea-4084-a3df-19d940e5d60f
   Frame=119   JointI=50   JointJ=101   IsCurved=No   GUID=6d0350e0-2dbb-4b4a-8d90-c49eb8efb643
   Frame=120   JointI=101   JointJ=102   IsCurved=No   GUID=7efac678-50e9-459c-831d-fb00f1a3fd9a
   Frame=121   JointI=102   JointJ=103   IsCurved=No   GUID=b2cda729-2e2e-4f4b-ab49-7259cac83159
   Frame=122   JointI=52   JointJ=104   IsCurved=No   GUID=34043593-0a74-4c66-8844-67afaab08a75
   Frame=123   JointI=104   JointJ=105   IsCurved=No   GUID=03b1444c-3cba-4dcd-80e3-3a6c28c46e56
   Frame=124   JointI=105   JointJ=106   IsCurved=No   GUID=3e868e7d-c244-461c-99d2-1ef1b6478e90
   Frame=125   JointI=54   JointJ=107   IsCurved=No   GUID=f7a9b352-fc3c-4668-aecd-c34fb069a1e9
   Frame=126   JointI=107   JointJ=108   IsCurved=No   GUID=6807fa63-5532-471e-866b-57a84656f79a
   Frame=127   JointI=108   JointJ=109   IsCurved=No   GUID=fa1a44b6-e4ea-40ba-99a8-d1caa4d866e9
   Frame=128   JointI=56   JointJ=110   IsCurved=No   GUID=4b02f1cf-3f38-48de-9f7e-10273455c415
   Frame=129   JointI=110   JointJ=111   IsCurved=No   GUID=69814d28-0fd7-4489-8bda-ded5e7479ead
   Frame=130   JointI=111   JointJ=112   IsCurved=No   GUID=e3035371-465e-42dc-b8ea-8913cbbbfa62
   Frame=131   JointI=58   JointJ=113   IsCurved=No   GUID=5f09f92d-3628-459b-89d5-74c3ae86be78
   Frame=132   JointI=113   JointJ=114   IsCurved=No   GUID=b1cca414-3288-4a1e-a5d4-fa8a6790b324
   Frame=133   JointI=114   JointJ=115   IsCurved=No   GUID=47322b2f-1e42-4e94-92c2-82272c19e884
   Frame=134   JointI=59   JointJ=116   IsCurved=No   GUID=47a1bb45-65cd-48cc-af3d-61a47c9c290d
   Frame=135   JointI=116   JointJ=117   IsCurved=No   GUID=6e9ef3d5-d64c-40da-9342-3e5f75a8a3eb
   Frame=136   JointI=60   JointJ=118   IsCurved=No   GUID=fa64e081-0711-4225-973a-0de39b00c97c
   Frame=137   JointI=118   JointJ=119   IsCurved=No   GUID=248513f1-7a6b-4b4b-95d7-1f59830b3daf
   Frame=138   JointI=61   JointJ=120   IsCurved=No   GUID=49758b49-1c68-4860-a4a1-fca3f4dc258b
   Frame=139   JointI=120   JointJ=121   IsCurved=No   GUID=e734ea6e-dc91-49de-9bf4-2666a73cc990
   Frame=140   JointI=62   JointJ=122   IsCurved=No   GUID=51007719-15ab-45e1-904b-a8c6c2b2a32a
   Frame=141   JointI=122   JointJ=123   IsCurved=No   GUID=006e53e3-e371-49c1-8079-0bb90bb00330
   Frame=142   JointI=63   JointJ=124   IsCurved=No   GUID=60f91c53-f26c-4e50-a80f-3bc314f439a0
   Frame=143   JointI=124   JointJ=125   IsCurved=No   GUID=138bac20-8a32-46eb-8a7b-dda18c1605bc
   Frame=144   JointI=64   JointJ=126   IsCurved=No   GUID=120a8644-14e2-4caa-a1cc-9a199c23a7ab
   Frame=145   JointI=126   JointJ=127   IsCurved=No   GUID=296aff9a-a844-429f-b59f-c9b221ab9867
   Frame=146   JointI=65   JointJ=128   IsCurved=No   GUID=a34e459c-5436-407c-98b0-2940ada228d8
   Frame=147   JointI=128   JointJ=129   IsCurved=No   GUID=4958bdde-6076-469a-80c2-d00dff2d094a
   Frame=148   JointI=66   JointJ=130   IsCurved=No   GUID=c0d572f0-8d83-4467-b163-11094dbbd2fc
   Frame=149   JointI=130   JointJ=131   IsCurved=No   GUID=9b63c12e-063d-404c-a7b5-ad2ac3fa9e0d
   Frame=150   JointI=67   JointJ=132   IsCurved=No   GUID=a809b204-3116-4da2-8f0f-5f66a6273b6c
   Frame=151   JointI=132   JointJ=133   IsCurved=No   GUID=67f53cce-697f-4ad1-99b1-45749afbe8d9
   Frame=152   JointI=68   JointJ=134   IsCurved=No   GUID=ba161cfe-99a7-48b6-9a30-02c32d175903
   Frame=153   JointI=134   JointJ=135   IsCurved=No   GUID=49deb713-464f-4adc-9373-c322533088ae
   Frame=154   JointI=69   JointJ=136   IsCurved=No   GUID=2952a3fe-2730-42e4-a9ad-532ea68bd33f
   Frame=155   JointI=136   JointJ=137   IsCurved=No   GUID=edc9b638-47b6-4314-bfaa-026352bcf4b3
   Frame=156   JointI=70   JointJ=138   IsCurved=No   GUID=3393d355-4f57-4cf2-b9a2-8673f74abc24
   Frame=157   JointI=138   JointJ=139   IsCurved=No   GUID=69d7fe64-97d6-4bcb-b9ff-a48d56be1fdd
   Frame=158   JointI=71   JointJ=140   IsCurved=No   GUID=4dcb71d0-1a9b-484a-8c2a-6d14b8bd983e
   Frame=159   JointI=140   JointJ=141   IsCurved=No   GUID=8ea1aea6-78d8-44cf-acb9-ed4a8232df17
   Frame=160   JointI=72   JointJ=142   IsCurved=No   GUID=d1dc0922-0278-404a-987f-66d9945381cf
   Frame=161   JointI=142   JointJ=143   IsCurved=No   GUID=f2e919fd-45c4-442f-869d-b2d547480060
   Frame=162   JointI=73   JointJ=144   IsCurved=No   GUID=d067bf1a-e538-47b1-97c0-b48c0a5b3f8e
   Frame=163   JointI=144   JointJ=145   IsCurved=No   GUID=3d20d991-301a-4ffb-ba25-33b00a2065d2
   Frame=164   JointI=74   JointJ=146   IsCurved=No   GUID=2c75717c-fc46-4c60-92c1-c582b9436ff9
   Frame=165   JointI=146   JointJ=147   IsCurved=No   GUID=81b14240-e173-4a6d-bb4c-525f71e61492
   Frame=166   JointI=75   JointJ=148   IsCurved=No   GUID=a2723e9c-1b71-4a34-bc86-f7fc68725513
   Frame=167   JointI=148   JointJ=149   IsCurved=No   GUID=304dae2f-d422-4b1e-bfdd-7af0b40f371d
   Frame=168   JointI=76   JointJ=150   IsCurved=No   GUID=e02b071b-5974-44e9-8ca3-282e87b902d6
   Frame=169   JointI=150   JointJ=151   IsCurved=No   GUID=cdec73c3-be44-4371-8586-a0b643f2083c
   Frame=170   JointI=77   JointJ=152   IsCurved=No   GUID=5dc7ff06-eae0-42ab-bff2-e596a74130b5
   Frame=171   JointI=152   JointJ=153   IsCurved=No   GUID=8d6c22ec-dbba-4803-9886-6390a0a1acc5
   Frame=172   JointI=78   JointJ=154   IsCurved=No   GUID=aa778a86-8e9c-42a6-a1ca-9d2fe319558c
   Frame=173   JointI=154   JointJ=155   IsCurved=No   GUID=49ac612d-f9c6-4415-b8e4-ef5c95dcd5b1
   Frame=174   JointI=79   JointJ=156   IsCurved=No   GUID=24d956fe-e74b-4a81-abfc-1b3d046e0b2e
   Frame=175   JointI=156   JointJ=157   IsCurved=No   GUID=164567e6-84cb-49e9-8ce4-497fb7185a94
   Frame=176   JointI=95   JointJ=98   IsCurved=No   GUID=e908ea06-faed-4d6a-8499-f8311f5dd37e
   Frame=177   JointI=98   JointJ=101   IsCurved=No   GUID=1ad80735-6093-4495-a29c-977321f8339b
   Frame=178   JointI=101   JointJ=104   IsCurved=No   GUID=b1811e78-4070-4fa2-971c-0ce260448bb1
   Frame=179   JointI=104   JointJ=107   IsCurved=No   GUID=f158b04d-1391-4266-a8cc-96e807a1ddc4
   Frame=180   JointI=107   JointJ=110   IsCurved=No   GUID=04304f67-e6aa-41d8-a15f-03520fcb786f
   Frame=181   JointI=110   JointJ=113   IsCurved=No   GUID=63e31e60-84a4-47b6-b18c-43af050b7432
 
TABLE:  "COORDINATE SYSTEMS"
   Name=GLOBAL   Type=Cartesian   X=0   Y=0   Z=0   AboutZ=0   AboutY=0   AboutX=0
 
TABLE:  "DATABASE DOCUMENTATION"
 
TABLE:  "DATABASE FORMAT TYPES"
   UnitsCurr=Yes   OverrideE=No
 
TABLE:  "FRAME AUTO MESH ASSIGNMENTS"
   Frame=46   AutoMesh=Yes   AtJoints=Yes   AtFrames=No   NumSegments=0   MaxLength=0   MaxDegrees=0
   Frame=47   AutoMesh=Yes   AtJoints=Yes   AtFrames=No   NumSegments=0   MaxLength=0   MaxDegrees=0
   Frame=48   AutoMesh=Yes   AtJoints=Yes   AtFrames=No   NumSegments=0   MaxLength=0   MaxDegrees=0
   Frame=49   AutoMesh=Yes   AtJoints=Yes   AtFrames=No   NumSegments=0   MaxLength=0   MaxDegrees=0
   Frame=50   AutoMesh=Yes   AtJoints=Yes   AtFrames=No   NumSegments=0   MaxLength=0   MaxDegrees=0
   Frame=51   AutoMesh=Yes   AtJoints=Yes   AtFrames=No   NumSegments=0   MaxLength=0   MaxDegrees=0
   Frame=52   AutoMesh=Yes   AtJoints=Yes   AtFrames=No   NumSegments=0   MaxLength=0   MaxDegrees=0
   Frame=53   AutoMesh=Yes   AtJoints=Yes   AtFrames=No   NumSegments=0   MaxLength=0   MaxDegrees=0
   Frame=54   AutoMesh=Yes   AtJoints=Yes   AtFrames=No   NumSegments=0   MaxLength=0   MaxDegrees=0
   Frame=55   AutoMesh=Yes   AtJoints=Yes   AtFrames=No   NumSegments=0   MaxLength=0   MaxDegrees=0
   Frame=56   AutoMesh=Yes   AtJoints=Yes   AtFrames=No   NumSegments=0   MaxLength=0   MaxDegrees=0
   Frame=57   AutoMesh=Yes   AtJoints=Yes   AtFrames=No   NumSegments=0   MaxLength=0   MaxDegrees=0
   Frame=58   AutoMesh=Yes   AtJoints=Yes   AtFrames=No   NumSegments=0   MaxLength=0   MaxDegrees=0
   Frame=59   AutoMesh=Yes   AtJoints=Yes   AtFrames=No   NumSegments=0   MaxLength=0   MaxDegrees=0
   Frame=60   AutoMesh=Yes   AtJoints=Yes   AtFrames=No   NumSegments=0   MaxLength=0   MaxDegrees=0
   Frame=61   AutoMesh=Yes   AtJoints=Yes   AtFrames=No   NumSegments=0   MaxLength=0   MaxDegrees=0
   Frame=62   AutoMesh=Yes   AtJoints=Yes   AtFrames=No   NumSegments=0   MaxLength=0   MaxDegrees=0
   Frame=63   AutoMesh=Yes   AtJoints=Yes   AtFrames=No   NumSegments=0   MaxLength=0   MaxDegrees=0
   Frame=64   AutoMesh=Yes   AtJoints=Yes   AtFrames=No   NumSegments=0   MaxLength=0   MaxDegrees=0
   Frame=65   AutoMesh=Yes   AtJoints=Yes   AtFrames=No   NumSegments=0   MaxLength=0   MaxDegrees=0
# ... 116 like lines cut
 
TABLE:  "FRAME DESIGN PROCEDURES"
   Frame=46   DesignProc="From Material"
   Frame=47   DesignProc="From Material"
   Frame=48   DesignProc="From Material"
   Frame=49   DesignProc="From Material"
   Frame=50   DesignProc="From Material"
   Frame=51   DesignProc="From Material"
   Frame=52   DesignProc="From Material"
   Frame=53   DesignProc="From Material"
   Frame=54   DesignProc="From Material"
   Frame=55   DesignProc="From Material"
   Frame=56   DesignProc="From Material"
   Frame=57   DesignProc="From Material"
   Frame=58   DesignProc="From Material"
   Frame=59   DesignProc="From Material"
   Frame=60   DesignProc="From Material"
   Frame=61   DesignProc="From Material"
   Frame=62   DesignProc="From Material"
   Frame=63   DesignProc="From Material"
   Frame=64   DesignProc="From Material"
   Frame=65   DesignProc="From Material"
# ... 48 like lines cut
   Frame=114   DesignProc="No Design"
   Frame=115   DesignProc="No Design"
   Frame=116   DesignProc="From Material"
   Frame=117   DesignProc="No Design"
   Frame=118   DesignProc="No Design"
   Frame=119   DesignProc="From Material"
   Frame=120   DesignProc="No Design"
   Frame=121   DesignProc="No Design"
   Frame=122   DesignProc="From Material"
   Frame=123   DesignProc="No Design"
   Frame=124   DesignProc="No Design"
   Frame=125   DesignProc="From Material"
   Frame=126   DesignProc="No Design"
   Frame=127   DesignProc="No Design"
   Frame=128   DesignProc="From Material"
   Frame=129   DesignProc="No Design"
   Frame=130   DesignProc="No Design"
   Frame=131   DesignProc="From Material"
   Frame=132   DesignProc="No Design"
   Frame=133   DesignProc="No Design"
   Frame=134   DesignProc="No Design"
   Frame=135   DesignProc="No Design"
   Frame=136   DesignProc="No Design"
   Frame=137   DesignProc="No Design"
   Frame=138   DesignProc="No Design"
   Frame=139   DesignProc="No Design"
   Frame=140   DesignProc="No Design"
   Frame=141   DesignProc="No Design"
   Frame=142   DesignProc="No Design"
   Frame=143   DesignProc="No Design"
   Frame=144   DesignProc="No Design"
   Frame=145   DesignProc="No Design"
   Frame=146   DesignProc="No Design"
   Frame=147   DesignProc="No Design"
   Frame=148   DesignProc="No Design"
   Frame=149   DesignProc="No Design"
   Frame=150   DesignProc="No Design"
   Frame=151   DesignProc="No Design"
# ... 24 like lines cut
   Frame=176   DesignProc="From Material"
   Frame=177   DesignProc="From Material"
   Frame=178   DesignProc="From Material"
   Frame=179   DesignProc="From Material"
   Frame=180   DesignProc="From Material"
   Frame=181   DesignProc="From Material"
 
TABLE:  "FRAME LOAD TRANSFER OPTIONS"
   Frame=46   Transfer=Yes
   Frame=47   Transfer=Yes
   Frame=48   Transfer=Yes
   Frame=49   Transfer=Yes
   Frame=50   Transfer=Yes
   Frame=51   Transfer=Yes
   Frame=52   Transfer=Yes
   Frame=53   Transfer=Yes
   Frame=54   Transfer=Yes
   Frame=55   Transfer=Yes
   Frame=56   Transfer=Yes
   Frame=57   Transfer=Yes
   Frame=58   Transfer=Yes
   Frame=59   Transfer=Yes
   Frame=60   Transfer=Yes
   Frame=61   Transfer=Yes
   Frame=62   Transfer=Yes
   Frame=63   Transfer=Yes
   Frame=64   Transfer=Yes
   Frame=65   Transfer=Yes
# ... 116 like lines cut
 
TABLE:  "FRAME LOCAL AXES ASSIGNMENTS 1 - TYPICAL"
   Frame=113   Angle=90
   Frame=116   Angle=90
   Frame=119   Angle=90
   Frame=122   Angle=90
   Frame=125   Angle=90
   Frame=128   Angle=90
   Frame=131   Angle=90
 
TABLE:  "FRAME OUTPUT STATION ASSIGNMENTS"
   Frame=46   StationType=MaxStaSpcg   MaxStaSpcg=0.5   AddAtElmInt=Yes   AddAtPtLoad=Yes
   Frame=47   StationType=MaxStaSpcg   MaxStaSpcg=0.5   AddAtElmInt=Yes   AddAtPtLoad=Yes
   Frame=48   StationType=MaxStaSpcg   MaxStaSpcg=0.5   AddAtElmInt=Yes   AddAtPtLoad=Yes
   Frame=49   StationType=MaxStaSpcg   MaxStaSpcg=0.5   AddAtElmInt=Yes   AddAtPtLoad=Yes
   Frame=50   StationType=MaxStaSpcg   MaxStaSpcg=0.5   AddAtElmInt=Yes   AddAtPtLoad=Yes
   Frame=51   StationType=MaxStaSpcg   MaxStaSpcg=0.5   AddAtElmInt=Yes   AddAtPtLoad=Yes
   Frame=52   StationType=MaxStaSpcg   MaxStaSpcg=0.5   AddAtElmInt=Yes   AddAtPtLoad=Yes
   Frame=53   StationType=MaxStaSpcg   MaxStaSpcg=0.5   AddAtElmInt=Yes   AddAtPtLoad=Yes
   Frame=54   StationType=MaxStaSpcg   MaxStaSpcg=0.5   AddAtElmInt=Yes   AddAtPtLoad=Yes
   Frame=55   StationType=MaxStaSpcg   MaxStaSpcg=0.5   AddAtElmInt=Yes   AddAtPtLoad=Yes
   Frame=56   StationType=MaxStaSpcg   MaxStaSpcg=0.5   AddAtElmInt=Yes   AddAtPtLoad=Yes
   Frame=57   StationType=MaxStaSpcg   MaxStaSpcg=0.5   AddAtElmInt=Yes   AddAtPtLoad=Yes
   Frame=58   StationType=MaxStaSpcg   MaxStaSpcg=0.5   AddAtElmInt=Yes   AddAtPtLoad=Yes
   Frame=59   StationType=MaxStaSpcg   MaxStaSpcg=0.5   AddAtElmInt=Yes   AddAtPtLoad=Yes
   Frame=60   StationType=MaxStaSpcg   MaxStaSpcg=0.5   AddAtElmInt=Yes   AddAtPtLoad=Yes
   Frame=61   StationType=MaxStaSpcg   MaxStaSpcg=0.5   AddAtElmInt=Yes   AddAtPtLoad=Yes
   Frame=62   StationType=MaxStaSpcg   MaxStaSpcg=0.5   AddAtElmInt=Yes   AddAtPtLoad=Yes
   Frame=63   StationType=MaxStaSpcg   MaxStaSpcg=0.5   AddAtElmInt=Yes   AddAtPtLoad=Yes
   Frame=64   StationType=MaxStaSpcg   MaxStaSpcg=0.5   AddAtElmInt=Yes   AddAtPtLoad=Yes
   Frame=65   StationType=MaxStaSpcg   MaxStaSpcg=0.5   AddAtElmInt=Yes   AddAtPtLoad=Yes
# ... 47 like lines cut
   Frame=113   StationType=MinNumSta   MinNumSta=3   AddAtElmInt=Yes   AddAtPtLoad=Yes
   Frame=114   StationType=MinNumSta   MinNumSta=3   AddAtElmInt=Yes   AddAtPtLoad=Yes
   Frame=115   StationType=MinNumSta   MinNumSta=3   AddAtElmInt=Yes   AddAtPtLoad=Yes
   Frame=116   StationType=MinNumSta   MinNumSta=3   AddAtElmInt=Yes   AddAtPtLoad=Yes
   Frame=117   StationType=MinNumSta   MinNumSta=3   AddAtElmInt=Yes   AddAtPtLoad=Yes
   Frame=118   StationType=MinNumSta   MinNumSta=3   AddAtElmInt=Yes   AddAtPtLoad=Yes
   Frame=119   StationType=MinNumSta   MinNumSta=3   AddAtElmInt=Yes   AddAtPtLoad=Yes
   Frame=120   StationType=MinNumSta   MinNumSta=3   AddAtElmInt=Yes   AddAtPtLoad=Yes
   Frame=121   StationType=MinNumSta   MinNumSta=3   AddAtElmInt=Yes   AddAtPtLoad=Yes
   Frame=122   StationType=MinNumSta   MinNumSta=3   AddAtElmInt=Yes   AddAtPtLoad=Yes
   Frame=123   StationType=MinNumSta   MinNumSta=3   AddAtElmInt=Yes   AddAtPtLoad=Yes
   Frame=124   StationType=MinNumSta   MinNumSta=3   AddAtElmInt=Yes   AddAtPtLoad=Yes
   Frame=125   StationType=MinNumSta   MinNumSta=3   AddAtElmInt=Yes   AddAtPtLoad=Yes
   Frame=126   StationType=MinNumSta   MinNumSta=3   AddAtElmInt=Yes   AddAtPtLoad=Yes
   Frame=127   StationType=MinNumSta   MinNumSta=3   AddAtElmInt=Yes   AddAtPtLoad=Yes
   Frame=128   StationType=MinNumSta   MinNumSta=3   AddAtElmInt=Yes   AddAtPtLoad=Yes
   Frame=129   StationType=MinNumSta   MinNumSta=3   AddAtElmInt=Yes   AddAtPtLoad=Yes
   Frame=130   StationType=MinNumSta   MinNumSta=3   AddAtElmInt=Yes   AddAtPtLoad=Yes
   Frame=131   StationType=MinNumSta   MinNumSta=3   AddAtElmInt=Yes   AddAtPtLoad=Yes
   Frame=132   StationType=MinNumSta   MinNumSta=3   AddAtElmInt=Yes   AddAtPtLoad=Yes
# ... 43 like lines cut
   Frame=176   StationType=MaxStaSpcg   MaxStaSpcg=0.5   AddAtElmInt=Yes   AddAtPtLoad=Yes
   Frame=177   StationType=MaxStaSpcg   MaxStaSpcg=0.5   AddAtElmInt=Yes   AddAtPtLoad=Yes
   Frame=178   StationType=MaxStaSpcg   MaxStaSpcg=0.5   AddAtElmInt=Yes   AddAtPtLoad=Yes
   Frame=179   StationType=MaxStaSpcg   MaxStaSpcg=0.5   AddAtElmInt=Yes   AddAtPtLoad=Yes
   Frame=180   StationType=MaxStaSpcg   MaxStaSpcg=0.5   AddAtElmInt=Yes   AddAtPtLoad=Yes
   Frame=181   StationType=MaxStaSpcg   MaxStaSpcg=0.5   AddAtElmInt=Yes   AddAtPtLoad=Yes
 
TABLE:  "FRAME SECTION ASSIGNMENTS"
   Frame=46   AutoSelect=N.A.   AnalSect=TB   MatProp=Default
   Frame=47   AutoSelect=N.A.   AnalSect=TB   MatProp=Default
   Frame=48   AutoSelect=N.A.   AnalSect=TB   MatProp=Default
   Frame=49   AutoSelect=N.A.   AnalSect=TB   MatProp=Default
   Frame=50   AutoSelect=N.A.   AnalSect=TB   MatProp=Default
   Frame=51   AutoSelect=N.A.   AnalSect=TB   MatProp=Default
   Frame=52   AutoSelect=N.A.   AnalSect=TB   MatProp=Default
   Frame=53   AutoSelect=N.A.   AnalSect=TB   MatProp=Default
   Frame=54   AutoSelect=N.A.   AnalSect=TB   MatProp=Default
   Frame=55   AutoSelect=N.A.   AnalSect=TB   MatProp=Default
   Frame=56   AutoSelect=N.A.   AnalSect=TB   MatProp=Default
   Frame=57   AutoSelect=N.A.   AnalSect=TB   MatProp=Default
   Frame=58   AutoSelect=N.A.   AnalSect=TB   MatProp=Default
   Frame=59   AutoSelect=N.A.   AnalSect=TB   MatProp=Default
   Frame=60   AutoSelect=N.A.   AnalSect=TB   MatProp=Default
   Frame=61   AutoSelect=N.A.   AnalSect=TB   MatProp=Default
   Frame=62   AutoSelect=N.A.   AnalSect=TB   MatProp=Default
   Frame=63   AutoSelect=N.A.   AnalSect=TB   MatProp=Default
   Frame=64   AutoSelect=N.A.   AnalSect=TB   MatProp=Default
   Frame=65   AutoSelect=N.A.   AnalSect=TB   MatProp=Default
# ... 15 like lines cut
   Frame=81   AutoSelect=N.A.   AnalSect=LB   MatProp=Default
   Frame=82   AutoSelect=N.A.   AnalSect=LB   MatProp=Default
   Frame=83   AutoSelect=N.A.   AnalSect=LB   MatProp=Default
   Frame=84   AutoSelect=N.A.   AnalSect=LB   MatProp=Default
   Frame=85   AutoSelect=N.A.   AnalSect=LB   MatProp=Default
   Frame=86   AutoSelect=N.A.   AnalSect=LB   MatProp=Default
   Frame=87   AutoSelect=N.A.   AnalSect=LB   MatProp=Default
   Frame=88   AutoSelect=N.A.   AnalSect=LB   MatProp=Default
   Frame=89   AutoSelect=N.A.   AnalSect=LB   MatProp=Default
   Frame=90   AutoSelect=N.A.   AnalSect=LB   MatProp=Default
   Frame=91   AutoSelect=N.A.   AnalSect=LB   MatProp=Default
   Frame=92   AutoSelect=N.A.   AnalSect=LB   MatProp=Default
   Frame=93   AutoSelect=N.A.   AnalSect=LB   MatProp=Default
   Frame=94   AutoSelect=N.A.   AnalSect=LB   MatProp=Default
   Frame=95   AutoSelect=N.A.   AnalSect=LB   MatProp=Default
   Frame=96   AutoSelect=N.A.   AnalSect=LB   MatProp=Default
   Frame=97   AutoSelect=N.A.   AnalSect=LB   MatProp=Default
   Frame=98   AutoSelect=N.A.   AnalSect=LB   MatProp=Default
   Frame=99   AutoSelect=N.A.   AnalSect=LB   MatProp=Default
   Frame=100   AutoSelect=N.A.   AnalSect=LB   MatProp=Default
# ... 12 like lines cut
   Frame=113   AutoSelect=N.A.   AnalSect=EB   MatProp=Default
   Frame=114   AutoSelect=N.A.   AnalSect=Piles   MatProp=Default
   Frame=115   AutoSelect=N.A.   AnalSect=Piles   MatProp=Default
   Frame=116   AutoSelect=N.A.   AnalSect=EB   MatProp=Default
   Frame=117   AutoSelect=N.A.   AnalSect=Piles   MatProp=Default
   Frame=118   AutoSelect=N.A.   AnalSect=Piles   MatProp=Default
   Frame=119   AutoSelect=N.A.   AnalSect=EB   MatProp=Default
   Frame=120   AutoSelect=N.A.   AnalSect=Piles   MatProp=Default
   Frame=121   AutoSelect=N.A.   AnalSect=Piles   MatProp=Default
   Frame=122   AutoSelect=N.A.   AnalSect=EB   MatProp=Default
   Frame=123   AutoSelect=N.A.   AnalSect=Piles   MatProp=Default
   Frame=124   AutoSelect=N.A.   AnalSect=Piles   MatProp=Default
   Frame=125   AutoSelect=N.A.   AnalSect=EB   MatProp=Default
   Frame=126   AutoSelect=N.A.   AnalSect=Piles   MatProp=Default
   Frame=127   AutoSelect=N.A.   AnalSect=Piles   MatProp=Default
   Frame=128   AutoSelect=N.A.   AnalSect=EB   MatProp=Default
   Frame=129   AutoSelect=N.A.   AnalSect=Piles   MatProp=Default
   Frame=130   AutoSelect=N.A.   AnalSect=Piles   MatProp=Default
   Frame=131   AutoSelect=N.A.   AnalSect=EB   MatProp=Default
   Frame=132   AutoSelect=N.A.   AnalSect=Piles   MatProp=Default
   Frame=133   AutoSelect=N.A.   AnalSect=Piles   MatProp=Default
   Frame=134   AutoSelect=N.A.   AnalSect=Piles   MatProp=Default
   Frame=135   AutoSelect=N.A.   AnalSect=Piles   MatProp=Default
   Frame=136   AutoSelect=N.A.   AnalSect=Piles   MatProp=Default
   Frame=137   AutoSelect=N.A.   AnalSect=Piles   MatProp=Default
   Frame=138   AutoSelect=N.A.   AnalSect=Piles   MatProp=Default
   Frame=139   AutoSelect=N.A.   AnalSect=Piles   MatProp=Default
   Frame=140   AutoSelect=N.A.   AnalSect=Piles   MatProp=Default
   Frame=141   AutoSelect=N.A.   AnalSect=Piles   MatProp=Default
   Frame=142   AutoSelect=N.A.   AnalSect=Piles   MatProp=Default
   Frame=143   AutoSelect=N.A.   AnalSect=Piles   MatProp=Default
   Frame=144   AutoSelect=N.A.   AnalSect=Piles   MatProp=Default
   Frame=145   AutoSelect=N.A.   AnalSect=Piles   MatProp=Default
   Frame=146   AutoSelect=N.A.   AnalSect=Piles   MatProp=Default
   Frame=147   AutoSelect=N.A.   AnalSect=Piles   MatProp=Default
   Frame=148   AutoSelect=N.A.   AnalSect=Piles   MatProp=Default
   Frame=149   AutoSelect=N.A.   AnalSect=Piles   MatProp=Default
   Frame=150   AutoSelect=N.A.   AnalSect=Piles   MatProp=Default
   Frame=151   AutoSelect=N.A.   AnalSect=Piles   MatProp=Default
# ... 24 like lines cut
   Frame=176   AutoSelect=N.A.   AnalSect=EB-1   MatProp=Default
   Frame=177   AutoSelect=N.A.   AnalSect=EB-1   MatProp=Default
   Frame=178   AutoSelect=N.A.   AnalSect=EB-1   MatProp=Default
   Frame=179   AutoSelect=N.A.   AnalSect=EB-1   MatProp=Default
   Frame=180   AutoSelect=N.A.   AnalSect=EB-1   MatProp=Default
   Frame=181   AutoSelect=N.A.   AnalSect=EB-1   MatProp=Default
 
TABLE:  "FRAME SECTION PROPERTIES 01 - GENERAL"
   SectionName=EB   Material=BTCT   Shape=Rectangular   t3=1.4   t2=2   Area=2.8   TorsConst=1.03873877613333   I33=0.457333333333333   I22=0.933333333333333   I23=0   AS2=2.33333333333333   AS3=2.33333333333333   S33Top=0.653333333333333 _
        S33Bot=0.653333333333333   S22Left=0.933333333333333   S22Right=0.933333333333333   Z33=0.98   Z22=1.4   R33=0.404145188432738   R22=0.577350269189626   CGOffset3=0   CGOffset2=0   EccV2=0   EccV3=0   Cw=0   Color=Gray8Dark _
        FromFile=No   AMod=1   A2Mod=1   A3Mod=1   JMod=1   I2Mod=1   I3Mod=1   MMod=1   WMod=1
   SectionName=EB-1   Material=BTCT   Shape=Rectangular   t3=2   t2=2   Area=4   TorsConst=2.25333333333333   I33=1.33333333333333   I22=1.33333333333333   I23=0   AS2=3.33333333333333   AS3=3.33333333333333   S33Top=1.33333333333333 _
        S33Bot=1.33333333333333   S22Left=1.33333333333333   S22Right=1.33333333333333   Z33=2   Z22=2   R33=0.577350269189626   R22=0.577350269189626   CGOffset3=0   CGOffset2=0   EccV2=0   EccV3=0   Cw=0   Color=Blue   FromFile=No _
        AMod=1   A2Mod=1   A3Mod=1   JMod=1   I2Mod=1   I3Mod=1   MMod=1   WMod=1
   SectionName=LB   Material=BTCT   Shape=Rectangular   t3=1.4   t2=2   Area=2.8   TorsConst=1.03873877613333   I33=0.457333333333333   I22=0.933333333333333   I23=0   AS2=2.33333333333333   AS3=2.33333333333333   S33Top=0.653333333333333 _
        S33Bot=0.653333333333333   S22Left=0.933333333333333   S22Right=0.933333333333333   Z33=0.98   Z22=1.4   R33=0.404145188432738   R22=0.577350269189626   CGOffset3=0   CGOffset2=0   EccV2=0   EccV3=0   Cw=0   Color=Yellow _
        FromFile=No   AMod=1   A2Mod=1   A3Mod=1   JMod=1   I2Mod=1   I3Mod=1   MMod=1   WMod=1
   SectionName=Piles   Material=BTCTCOC   Shape=Pipe   t3=1.2   tw=0.15   Area=0.494800842940393   TorsConst=0.139162737076985   I33=0.0695813685384927   I22=0.0695813685384927   I23=0   AS2=0.250743670408983   AS3=0.250743670408983 _
        S33Top=0.115968947564155   S33Bot=0.115968947564155   S22Left=0.115968947564155   S22Right=0.115968947564155   Z33=0.1665   Z22=0.1665   R33=0.375   R22=0.375   CGOffset3=0   CGOffset2=0   EccV2=0   EccV3=0   Cw=0   Color=Green _
        FromFile=No   AMod=1   A2Mod=1   A3Mod=1   JMod=1   I2Mod=1   I3Mod=1   MMod=1   WMod=1
   SectionName=TB   Material=BTCT   Shape=Rectangular   t3=1.4   t2=2   Area=2.8   TorsConst=1.03873877613333   I33=0.457333333333333   I22=0.933333333333333   I23=0   AS2=2.33333333333333   AS3=2.33333333333333   S33Top=0.653333333333333 _
        S33Bot=0.653333333333333   S22Left=0.933333333333333   S22Right=0.933333333333333   Z33=0.98   Z22=1.4   R33=0.404145188432738   R22=0.577350269189626   CGOffset3=0   CGOffset2=0   EccV2=0   EccV3=0   Cw=0   Color=Magenta _
        FromFile=No   AMod=1   A2Mod=1   A3Mod=1   JMod=1   I2Mod=1   I3Mod=1   MMod=1   WMod=1
 
TABLE:  "FRAME SECTION PROPERTIES 02 - CONCRETE COLUMN"
   SectionName=EB   RebarMatL=A706   RebarMatC=A706   ReinfConfig=Rectangular   LatReinf=Ties   Cover=0.05   NumBars3Dir=2   NumBars2Dir=2   BarSizeL=12d   BarSizeC=10d   SpacingC=0.1   NumCBars2=2   NumCBars3=2   ReinfType=Design
   SectionName=EB-1   RebarMatL=A706   RebarMatC=A706   ReinfConfig=Rectangular   LatReinf=Ties   Cover=0.05   NumBars3Dir=2   NumBars2Dir=2   BarSizeL=12d   BarSizeC=10d   SpacingC=0.1   NumCBars2=2   NumCBars3=2   ReinfType=Design
   SectionName=LB   RebarMatL=A706   RebarMatC=A706   ReinfConfig=Rectangular   LatReinf=Ties   Cover=0.05   NumBars3Dir=2   NumBars2Dir=2   BarSizeL=12d   BarSizeC=10d   SpacingC=0.1   NumCBars2=2   NumCBars3=2   ReinfType=Design
   SectionName=TB   RebarMatL=A706   RebarMatC=A706   ReinfConfig=Rectangular   LatReinf=Ties   Cover=0.05   NumBars3Dir=2   NumBars2Dir=2   BarSizeL=12d   BarSizeC=10d   SpacingC=0.1   NumCBars2=2   NumCBars3=2   ReinfType=Design
 
TABLE:  "FRAME SECTION PROPERTIES 13 - TIME DEPENDENT"
   SectionName=EB   TypeSize=Auto   AutoSFSize=1
   SectionName=EB-1   TypeSize=Auto   AutoSFSize=1
   SectionName=LB   TypeSize=Auto   AutoSFSize=1
   SectionName=Piles   TypeSize=Auto   AutoSFSize=1
   SectionName=TB   TypeSize=Auto   AutoSFSize=1
 
TABLE:  "FUNCTION - PLOT FUNCTIONS"
   PlotFunc="Input Energy"   Type=Energy   Component=Input   Mode=All
 
TABLE:  "FUNCTION - POWER SPECTRAL DENSITY - USER"
   Name=UNIFPSD   Frequency=0   Value=1
   Name=UNIFPSD   Frequency=1   Value=1
 
TABLE:  "FUNCTION - RESPONSE SPECTRUM - USER"
   Name=UNIFRS   Period=0   Accel=1   FuncDamp=0.05
   Name=UNIFRS   Period=1   Accel=1
 
TABLE:  "FUNCTION - STEADY STATE - USER"
   Name=UNIFSS   Frequency=0   Value=1
   Name=UNIFSS   Frequency=1   Value=1
 
TABLE:  "FUNCTION - TIME HISTORY - USER"
   Name=RAMPTH   Time=0   Value=0
   Name=RAMPTH   Time=1   Value=1
   Name=RAMPTH   Time=4   Value=1
   Name=UNIFTH   Time=0   Value=1
   Name=UNIFTH   Time=1   Value=1
 
TABLE:  "GRID LINES"
   CoordSys=GLOBAL   AxisDir=X   GridID=A   XRYZCoord=-10   LineType=Primary   LineColor=Gray8Dark   Visible=Yes   BubbleLoc=End   AllVisible=Yes   BubbleSize=0.9375
   CoordSys=GLOBAL   AxisDir=X   GridID=B   XRYZCoord=-9   LineType=Primary   LineColor=Gray8Dark   Visible=Yes   BubbleLoc=End
   CoordSys=GLOBAL   AxisDir=X   GridID=C   XRYZCoord=-4.5   LineType=Primary   LineColor=Gray8Dark   Visible=Yes   BubbleLoc=End
   CoordSys=GLOBAL   AxisDir=X   GridID=D   XRYZCoord=0   LineType=Primary   LineColor=Gray8Dark   Visible=Yes   BubbleLoc=End
   CoordSys=GLOBAL   AxisDir=X   GridID=E   XRYZCoord=4.5   LineType=Primary   LineColor=Gray8Dark   Visible=Yes   BubbleLoc=End
   CoordSys=GLOBAL   AxisDir=X   GridID=F   XRYZCoord=9   LineType=Primary   LineColor=Gray8Dark   Visible=Yes   BubbleLoc=End
   CoordSys=GLOBAL   AxisDir=X   GridID=G   XRYZCoord=10   LineType=Primary   LineColor=Gray8Dark   Visible=Yes   BubbleLoc=End
   CoordSys=GLOBAL   AxisDir=Y   GridID=1   XRYZCoord=-5.2   LineType=Primary   LineColor=Gray8Dark   Visible=Yes   BubbleLoc=Start
   CoordSys=GLOBAL   AxisDir=Y   GridID=2   XRYZCoord=-4.2   LineType=Primary   LineColor=Gray8Dark   Visible=Yes   BubbleLoc=Start
   CoordSys=GLOBAL   AxisDir=Y   GridID=3   XRYZCoord=0   LineType=Primary   LineColor=Gray8Dark   Visible=Yes   BubbleLoc=Start
   CoordSys=GLOBAL   AxisDir=Y   GridID=4   XRYZCoord=4.2   LineType=Primary   LineColor=Gray8Dark   Visible=Yes   BubbleLoc=Start
   CoordSys=GLOBAL   AxisDir=Y   GridID=5   XRYZCoord=4.8   LineType=Primary   LineColor=Gray8Dark   Visible=Yes   BubbleLoc=Start
   CoordSys=GLOBAL   AxisDir=Z   GridID=Z1   XRYZCoord=0   LineType=Primary   LineColor=Gray8Dark   Visible=Yes   BubbleLoc=End
   CoordSys=GLOBAL   AxisDir=Z   GridID=Z2   XRYZCoord=13   LineType=Primary   LineColor=Gray8Dark   Visible=Yes   BubbleLoc=End
 
TABLE:  "GROUPS 1 - DEFINITIONS"
   GroupName=ALL   Selection=Yes   SectionCut=Yes   Steel=Yes   Concrete=Yes   Aluminum=Yes   ColdFormed=Yes   Stage=Yes   Bridge=Yes   AutoSeismic=No   AutoWind=No   SelDesSteel=No   SelDesAlum=No   SelDesCold=No   MassWeight=Yes   Color=Red
   GroupName=Pile   Selection=Yes   SectionCut=Yes   Steel=Yes   Concrete=Yes   Aluminum=Yes   ColdFormed=Yes   Stage=Yes   Bridge=Yes   AutoSeismic=No   AutoWind=No   SelDesSteel=No   SelDesAlum=No   SelDesCold=No   MassWeight=Yes   Color=Gray8Dark
   GroupName=DN   Selection=Yes   SectionCut=Yes   Steel=Yes   Concrete=Yes   Aluminum=Yes   ColdFormed=Yes   Stage=Yes   Bridge=Yes   AutoSeismic=No   AutoWind=No   SelDesSteel=No   SelDesAlum=No   SelDesCold=No   MassWeight=Yes   Color=Yellow
   GroupName=Pile_Toe   Selection=Yes   SectionCut=Yes   Steel=Yes   Concrete=Yes   Aluminum=Yes   ColdFormed=Yes   Stage=Yes   Bridge=Yes   AutoSeismic=No   AutoWind=No   SelDesSteel=No   SelDesAlum=No   SelDesCold=No   MassWeight=Yes   Color=Green
   GroupName=Pile_Bend   Selection=Yes   SectionCut=Yes   Steel=Yes   Concrete=Yes   Aluminum=Yes   ColdFormed=Yes   Stage=Yes   Bridge=Yes   AutoSeismic=No   AutoWind=No   SelDesSteel=No   SelDesAlum=No   SelDesCold=No   MassWeight=Yes   Color=Cyan
   GroupName=Beam   Selection=Yes   SectionCut=Yes   Steel=Yes   Concrete=Yes   Aluminum=Yes   ColdFormed=Yes   Stage=Yes   Bridge=Yes   AutoSeismic=No   AutoWind=No   SelDesSteel=No   SelDesAlum=No   SelDesCold=No   MassWeight=Yes   Color=Blue
   GroupName=Piles   Selection=Yes   SectionCut=Yes   Steel=Yes   Concrete=Yes   Aluminum=Yes   ColdFormed=Yes   Stage=Yes   Bridge=Yes   AutoSeismic=No   AutoWind=No   SelDesSteel=No   SelDesAlum=No   SelDesCold=No   MassWeight=Yes   Color=Magenta
   GroupName=Beams   Selection=Yes   SectionCut=Yes   Steel=Yes   Concrete=Yes   Aluminum=Yes   ColdFormed=Yes   Stage=Yes   Bridge=Yes   AutoSeismic=No   AutoWind=No   SelDesSteel=No   SelDesAlum=No   SelDesCold=No   MassWeight=Yes   Color=Yellow
 
TABLE:  "GROUPS 2 - ASSIGNMENTS"
 
TABLE:  "JOINT COORDINATES"
   Joint=45   CoordSys=GLOBAL   CoordType=Cartesian   XorR=-9   Y=-5   Z=0   SpecialJt=No   GUID=5f7fb00f-452e-4bef-a8e1-dcbce3eed8ae
   Joint=46   CoordSys=GLOBAL   CoordType=Cartesian   XorR=-9   Y=-4.5   Z=0   SpecialJt=No   GUID=9ecd7b2b-2849-4ca2-894f-74b30cd111cb
   Joint=47   CoordSys=GLOBAL   CoordType=Cartesian   XorR=-6   Y=-5   Z=0   SpecialJt=No   GUID=0c598106-ed3b-40ee-8c79-a6f11f86bad0
   Joint=48   CoordSys=GLOBAL   CoordType=Cartesian   XorR=-6   Y=-4.5   Z=0   SpecialJt=No   GUID=0b5eaed7-b056-4cf1-99b3-f3f7cf3a4321
   Joint=49   CoordSys=GLOBAL   CoordType=Cartesian   XorR=-3   Y=-5   Z=0   SpecialJt=No   GUID=a0e9c509-2939-4208-bcb8-9350d951dd7e
   Joint=50   CoordSys=GLOBAL   CoordType=Cartesian   XorR=-3   Y=-4.5   Z=0   SpecialJt=No   GUID=9ebb8d4c-2944-4486-aa9c-d04283834ff4
   Joint=51   CoordSys=GLOBAL   CoordType=Cartesian   XorR=0   Y=-5   Z=0   SpecialJt=No   GUID=90e830ab-2522-498e-a578-93d52b451069
   Joint=52   CoordSys=GLOBAL   CoordType=Cartesian   XorR=0   Y=-4.5   Z=0   SpecialJt=No   GUID=06b9c1f3-5e9c-4940-b9aa-dcfa54dc285b
   Joint=53   CoordSys=GLOBAL   CoordType=Cartesian   XorR=3   Y=-5   Z=0   SpecialJt=No   GUID=d8281881-a895-468c-91f3-16ca9cb60242
   Joint=54   CoordSys=GLOBAL   CoordType=Cartesian   XorR=3   Y=-4.5   Z=0   SpecialJt=No   GUID=e2a97207-5f82-4dd6-a0d4-c47cd3d733ae
   Joint=55   CoordSys=GLOBAL   CoordType=Cartesian   XorR=6   Y=-5   Z=0   SpecialJt=No   GUID=954ec055-4e3b-4b19-a9da-7cfa34f9d0fc
   Joint=56   CoordSys=GLOBAL   CoordType=Cartesian   XorR=6   Y=-4.5   Z=0   SpecialJt=No   GUID=76841628-8f29-4390-a1fb-04fb8976df29
   Joint=57   CoordSys=GLOBAL   CoordType=Cartesian   XorR=9   Y=-5   Z=0   SpecialJt=No   GUID=d342a23e-44df-4814-a54c-e747cbe54c0e
   Joint=58   CoordSys=GLOBAL   CoordType=Cartesian   XorR=9   Y=-4.5   Z=0   SpecialJt=No   GUID=6731cd88-e6d5-41e6-82ec-752feccc69eb
   Joint=59   CoordSys=GLOBAL   CoordType=Cartesian   XorR=-9   Y=-1.5   Z=0   SpecialJt=No   GUID=3abbf99c-86d1-4956-b193-d6c26dd8b413
   Joint=60   CoordSys=GLOBAL   CoordType=Cartesian   XorR=-6   Y=-1.5   Z=0   SpecialJt=No   GUID=1a3b2267-75bd-420e-aa6d-61aeaee9e996
   Joint=61   CoordSys=GLOBAL   CoordType=Cartesian   XorR=-3   Y=-1.5   Z=0   SpecialJt=No   GUID=4da58fe8-a7d1-4260-99e3-a77cf1296efb
   Joint=62   CoordSys=GLOBAL   CoordType=Cartesian   XorR=0   Y=-1.5   Z=0   SpecialJt=No   GUID=b8895e36-7413-4956-a6f2-586359fe50db
   Joint=63   CoordSys=GLOBAL   CoordType=Cartesian   XorR=3   Y=-1.5   Z=0   SpecialJt=No   GUID=d4666ec4-aac0-473e-933d-59129ce8e8ba
   Joint=64   CoordSys=GLOBAL   CoordType=Cartesian   XorR=6   Y=-1.5   Z=0   SpecialJt=No   GUID=fd01d317-5ea2-4171-aaa2-197597cf09a9
   Joint=65   CoordSys=GLOBAL   CoordType=Cartesian   XorR=9   Y=-1.5   Z=0   SpecialJt=No   GUID=86f06269-22ed-4ef6-94f8-15140eaedddc
   Joint=66   CoordSys=GLOBAL   CoordType=Cartesian   XorR=-9   Y=1.5   Z=0   SpecialJt=No   GUID=7ade0090-b6ff-4800-a673-a8c60c996373
   Joint=67   CoordSys=GLOBAL   CoordType=Cartesian   XorR=-6   Y=1.5   Z=0   SpecialJt=No   GUID=c7a0a7a6-29fa-427e-bfa6-8760ddfeaafb
   Joint=68   CoordSys=GLOBAL   CoordType=Cartesian   XorR=-3   Y=1.5   Z=0   SpecialJt=No   GUID=bbe3491b-0446-44f7-b890-77407c6c742b
   Joint=69   CoordSys=GLOBAL   CoordType=Cartesian   XorR=0   Y=1.5   Z=0   SpecialJt=No   GUID=bab8b2e2-a02b-4f84-be0f-750be2427d30
   Joint=70   CoordSys=GLOBAL   CoordType=Cartesian   XorR=3   Y=1.5   Z=0   SpecialJt=No   GUID=d0634923-0799-4251-81a3-9b5b40e8f625
   Joint=71   CoordSys=GLOBAL   CoordType=Cartesian   XorR=6   Y=1.5   Z=0   SpecialJt=No   GUID=0a38fc64-2b15-4d2b-a34e-13ab1fb7c3b8
   Joint=72   CoordSys=GLOBAL   CoordType=Cartesian   XorR=9   Y=1.5   Z=0   SpecialJt=No   GUID=7130a25a-9252-4577-8442-d2beec6be99e
   Joint=73   CoordSys=GLOBAL   CoordType=Cartesian   XorR=-9   Y=4.5   Z=0   SpecialJt=No   GUID=e3d1b90f-2a67-499e-a6c5-9764ec2a1672
   Joint=74   CoordSys=GLOBAL   CoordType=Cartesian   XorR=-6   Y=4.5   Z=0   SpecialJt=No   GUID=8f0d62cc-6bcd-4c2d-a0a1-62564deb2efe
   Joint=75   CoordSys=GLOBAL   CoordType=Cartesian   XorR=-3   Y=4.5   Z=0   SpecialJt=No   GUID=0c790afb-0a6b-45c5-a161-02efdd9efec2
   Joint=76   CoordSys=GLOBAL   CoordType=Cartesian   XorR=0   Y=4.5   Z=0   SpecialJt=No   GUID=68634e6b-21d5-4d2d-aa1c-fc08c9315667
   Joint=77   CoordSys=GLOBAL   CoordType=Cartesian   XorR=3   Y=4.5   Z=0   SpecialJt=No   GUID=1571f7fc-1916-4a39-8c39-03c98a750b90
   Joint=78   CoordSys=GLOBAL   CoordType=Cartesian   XorR=6   Y=4.5   Z=0   SpecialJt=No   GUID=5a5cabbc-68c6-427d-ac42-e144b7f8b430
   Joint=79   CoordSys=GLOBAL   CoordType=Cartesian   XorR=9   Y=4.5   Z=0   SpecialJt=No   GUID=03da4bf4-283a-485e-a603-6e14799c37a8
   Joint=80   CoordSys=GLOBAL   CoordType=Cartesian   XorR=-9   Y=5   Z=0   SpecialJt=No   GUID=046883de-189d-467f-a477-fca6420b2049
   Joint=81   CoordSys=GLOBAL   CoordType=Cartesian   XorR=-6   Y=5   Z=0   SpecialJt=No   GUID=0f340ad6-5a3d-4d9b-a06b-0bcb77f64ac1
   Joint=82   CoordSys=GLOBAL   CoordType=Cartesian   XorR=-3   Y=5   Z=0   SpecialJt=No   GUID=55ee77fe-dc40-4539-851a-b765b3a5a50e
   Joint=83   CoordSys=GLOBAL   CoordType=Cartesian   XorR=0   Y=5   Z=0   SpecialJt=No   GUID=47857f2d-f779-4a80-8065-ac2d416fbd21
   Joint=84   CoordSys=GLOBAL   CoordType=Cartesian   XorR=3   Y=5   Z=0   SpecialJt=No   GUID=d7717ace-de80-4e29-a590-27ac8d9cee8b
   Joint=85   CoordSys=GLOBAL   CoordType=Cartesian   XorR=6   Y=5   Z=0   SpecialJt=No   GUID=4ee8b426-3265-4439-b304-ffc5e9c5a233
   Joint=86   CoordSys=GLOBAL   CoordType=Cartesian   XorR=9   Y=5   Z=0   SpecialJt=No   GUID=9c60e6a0-a1a6-4228-ac1b-b128eb15467d
   Joint=87   CoordSys=GLOBAL   CoordType=Cartesian   XorR=-10   Y=-4.5   Z=0   SpecialJt=No   GUID=c21cb99d-8e2b-4224-ad46-675c41d5e239
   Joint=88   CoordSys=GLOBAL   CoordType=Cartesian   XorR=-10   Y=-1.5   Z=0   SpecialJt=No   GUID=0dc12593-9e0e-4366-b35d-84bafa3cd3c9
   Joint=89   CoordSys=GLOBAL   CoordType=Cartesian   XorR=-10   Y=1.5   Z=0   SpecialJt=No   GUID=6ccade22-504e-4c86-9ad6-114f3be6b592
   Joint=90   CoordSys=GLOBAL   CoordType=Cartesian   XorR=-10   Y=4.5   Z=0   SpecialJt=No   GUID=57b558a2-69bc-434d-9033-efec45719d06
   Joint=91   CoordSys=GLOBAL   CoordType=Cartesian   XorR=10   Y=-4.5   Z=0   SpecialJt=No   GUID=9522ef27-30ec-4e55-90d2-12df75650dc6
   Joint=92   CoordSys=GLOBAL   CoordType=Cartesian   XorR=10   Y=-1.5   Z=0   SpecialJt=No   GUID=c793f580-28e0-4267-bcd6-a3fbb02427c6
   Joint=93   CoordSys=GLOBAL   CoordType=Cartesian   XorR=10   Y=1.5   Z=0   SpecialJt=No   GUID=32c14057-2d84-482c-b378-a56ed7153b82
   Joint=94   CoordSys=GLOBAL   CoordType=Cartesian   XorR=10   Y=4.5   Z=0   SpecialJt=No   GUID=634ca70d-8970-4a6a-8d33-f306f71c12a0
   Joint=95   CoordSys=GLOBAL   CoordType=Cartesian   XorR=-9   Y=-4.5   Z=-3   SpecialJt=No   GUID=06539a19-e8fe-462f-ad48-1f574d0620f2
   Joint=96   CoordSys=GLOBAL   CoordType=Cartesian   XorR=-9   Y=-4.5   Z=-16.7344389692158   SpecialJt=No   GUID=b769b0cd-f65b-465f-b47d-d41b4d7f8207
   Joint=97   CoordSys=GLOBAL   CoordType=Cartesian   XorR=-9   Y=-4.5   Z=-16.8   SpecialJt=No   GUID=b9fb3667-ea48-412f-a794-ddd58b021d3a
   Joint=98   CoordSys=GLOBAL   CoordType=Cartesian   XorR=-6   Y=-4.5   Z=-3   SpecialJt=No   GUID=91ad2418-9e33-4fd5-a577-07d89ff92693
   Joint=99   CoordSys=GLOBAL   CoordType=Cartesian   XorR=-6   Y=-4.5   Z=-16.7344389692158   SpecialJt=No   GUID=bb01998e-fb67-484d-9c43-d1d0e07db311
   Joint=100   CoordSys=GLOBAL   CoordType=Cartesian   XorR=-6   Y=-4.5   Z=-16.8   SpecialJt=No   GUID=bbed14bf-b40d-4790-9cc5-ee1b0ac038a7
   Joint=101   CoordSys=GLOBAL   CoordType=Cartesian   XorR=-3   Y=-4.5   Z=-3   SpecialJt=No   GUID=b34e81a7-3777-41df-a8b7-10e201d954c9
   Joint=102   CoordSys=GLOBAL   CoordType=Cartesian   XorR=-3   Y=-4.5   Z=-16.7344389692158   SpecialJt=No   GUID=b1601434-d68e-4266-86ba-e49210ba8151
   Joint=103   CoordSys=GLOBAL   CoordType=Cartesian   XorR=-3   Y=-4.5   Z=-16.8   SpecialJt=No   GUID=34c26cf6-a0b5-452b-84a4-316226e27ea7
   Joint=104   CoordSys=GLOBAL   CoordType=Cartesian   XorR=0   Y=-4.5   Z=-3   SpecialJt=No   GUID=4e89545e-f5b3-4532-ba39-a8bab620460b
   Joint=105   CoordSys=GLOBAL   CoordType=Cartesian   XorR=0   Y=-4.5   Z=-16.7344389692158   SpecialJt=No   GUID=d9c534cf-d16b-4620-afee-b85af353f998
   Joint=106   CoordSys=GLOBAL   CoordType=Cartesian   XorR=0   Y=-4.5   Z=-16.8   SpecialJt=No   GUID=419e2c88-5fc1-4014-98de-9a8b2a1b80e3
   Joint=107   CoordSys=GLOBAL   CoordType=Cartesian   XorR=3   Y=-4.5   Z=-3   SpecialJt=No   GUID=07361561-1704-40fd-8603-390cbec73a3c
   Joint=108   CoordSys=GLOBAL   CoordType=Cartesian   XorR=3   Y=-4.5   Z=-16.7344389692158   SpecialJt=No   GUID=4b6b2eb1-2b56-4d67-8d39-61b3fb31963c
   Joint=109   CoordSys=GLOBAL   CoordType=Cartesian   XorR=3   Y=-4.5   Z=-16.8   SpecialJt=No   GUID=05b4a5c8-dcef-4ac0-b2a6-c2ec463f277a
   Joint=110   CoordSys=GLOBAL   CoordType=Cartesian   XorR=6   Y=-4.5   Z=-3   SpecialJt=No   GUID=3cbf5405-c9d8-4372-b52d-7521896be019
   Joint=111   CoordSys=GLOBAL   CoordType=Cartesian   XorR=6   Y=-4.5   Z=-16.7344389692158   SpecialJt=No   GUID=a188b5f2-6cd6-4977-afde-876508b72e9f
   Joint=112   CoordSys=GLOBAL   CoordType=Cartesian   XorR=6   Y=-4.5   Z=-16.8   SpecialJt=No   GUID=6f98e674-6c09-4ed7-8db1-425deb717f85
   Joint=113   CoordSys=GLOBAL   CoordType=Cartesian   XorR=9   Y=-4.5   Z=-3   SpecialJt=No   GUID=1adeedbf-b416-4849-90fe-8a8ec52181e8
   Joint=114   CoordSys=GLOBAL   CoordType=Cartesian   XorR=9   Y=-4.5   Z=-16.7344389692158   SpecialJt=No   GUID=f06a7a0c-022e-4023-ae0a-91b87633fe9c
   Joint=115   CoordSys=GLOBAL   CoordType=Cartesian   XorR=9   Y=-4.5   Z=-16.8   SpecialJt=No   GUID=4429e09c-b47d-4eb2-b3c3-dc7aac31a683
   Joint=116   CoordSys=GLOBAL   CoordType=Cartesian   XorR=-9   Y=-1.5   Z=-16.7344389692158   SpecialJt=No   GUID=d7b41fd3-fe06-496e-8d8c-779133ca3dd0
   Joint=117   CoordSys=GLOBAL   CoordType=Cartesian   XorR=-9   Y=-1.5   Z=-16.8   SpecialJt=No   GUID=a38f0874-a100-4929-a816-48765cc59851
   Joint=118   CoordSys=GLOBAL   CoordType=Cartesian   XorR=-6   Y=-1.5   Z=-16.7344389692158   SpecialJt=No   GUID=4ad87a0a-452b-4d08-8796-0b695d64fd74
   Joint=119   CoordSys=GLOBAL   CoordType=Cartesian   XorR=-6   Y=-1.5   Z=-16.8   SpecialJt=No   GUID=29322e85-0830-4f55-a818-bb406aa6069c
   Joint=120   CoordSys=GLOBAL   CoordType=Cartesian   XorR=-3   Y=-1.5   Z=-16.7344389692158   SpecialJt=No   GUID=f10c1d77-89dc-4fd1-8921-c7f09a2753cf
   Joint=121   CoordSys=GLOBAL   CoordType=Cartesian   XorR=-3   Y=-1.5   Z=-16.8   SpecialJt=No   GUID=b0b834ba-b44f-4941-a00c-a232072b608d
   Joint=122   CoordSys=GLOBAL   CoordType=Cartesian   XorR=0   Y=-1.5   Z=-16.7344389692158   SpecialJt=No   GUID=2ea131e9-4ffb-4287-b95a-5f5d7a28c7e2
   Joint=123   CoordSys=GLOBAL   CoordType=Cartesian   XorR=0   Y=-1.5   Z=-16.8   SpecialJt=No   GUID=c78bd9ec-fabe-4b2b-8e0b-469298b5ee47
   Joint=124   CoordSys=GLOBAL   CoordType=Cartesian   XorR=3   Y=-1.5   Z=-16.7344389692158   SpecialJt=No   GUID=8e0093d3-b921-4c54-8291-1a82b1e22933
   Joint=125   CoordSys=GLOBAL   CoordType=Cartesian   XorR=3   Y=-1.5   Z=-16.8   SpecialJt=No   GUID=8cf6e046-6aa5-41d9-a706-00c91da7fcfc
   Joint=126   CoordSys=GLOBAL   CoordType=Cartesian   XorR=6   Y=-1.5   Z=-16.7344389692158   SpecialJt=No   GUID=666c5673-9c24-4f43-aff7-c1376ac67bd3
   Joint=127   CoordSys=GLOBAL   CoordType=Cartesian   XorR=6   Y=-1.5   Z=-16.8   SpecialJt=No   GUID=366bff90-88ce-4300-90e8-809d224cb901
   Joint=128   CoordSys=GLOBAL   CoordType=Cartesian   XorR=9   Y=-1.5   Z=-16.7344389692158   SpecialJt=No   GUID=b707ed91-4490-4c6d-9a34-83b616cce79e
   Joint=129   CoordSys=GLOBAL   CoordType=Cartesian   XorR=9   Y=-1.5   Z=-16.8   SpecialJt=No   GUID=d8323b8c-f86d-4683-a25c-76b808443ef4
   Joint=130   CoordSys=GLOBAL   CoordType=Cartesian   XorR=-9   Y=1.5   Z=-16.7344389692158   SpecialJt=No   GUID=3a67d0c5-9554-4336-bbbc-574ce79b8e0c
   Joint=131   CoordSys=GLOBAL   CoordType=Cartesian   XorR=-9   Y=1.5   Z=-16.8   SpecialJt=No   GUID=2ab6403a-d5e7-405c-bfeb-53ad802828ad
   Joint=132   CoordSys=GLOBAL   CoordType=Cartesian   XorR=-6   Y=1.5   Z=-16.7344389692158   SpecialJt=No   GUID=1fe6eaa0-29f7-4d0f-b805-52506279b763
   Joint=133   CoordSys=GLOBAL   CoordType=Cartesian   XorR=-6   Y=1.5   Z=-16.8   SpecialJt=No   GUID=89341b8b-da38-4ac2-90dd-0e04bbfdb7dc
   Joint=134   CoordSys=GLOBAL   CoordType=Cartesian   XorR=-3   Y=1.5   Z=-16.7344389692158   SpecialJt=No   GUID=67df0782-d81c-41d8-926e-077da5c069bd
   Joint=135   CoordSys=GLOBAL   CoordType=Cartesian   XorR=-3   Y=1.5   Z=-16.8   SpecialJt=No   GUID=fe403b7e-7512-4d41-a37b-7279da462b95
   Joint=136   CoordSys=GLOBAL   CoordType=Cartesian   XorR=0   Y=1.5   Z=-16.7344389692158   SpecialJt=No   GUID=43bfc5a4-c80c-42ff-9d27-1fcb723f6356
   Joint=137   CoordSys=GLOBAL   CoordType=Cartesian   XorR=0   Y=1.5   Z=-16.8   SpecialJt=No   GUID=99c7e2a4-8010-4701-aa4a-645518c07c0e
   Joint=138   CoordSys=GLOBAL   CoordType=Cartesian   XorR=3   Y=1.5   Z=-16.7344389692158   SpecialJt=No   GUID=419839fd-b8ca-465f-a94a-539a26716c1c
   Joint=139   CoordSys=GLOBAL   CoordType=Cartesian   XorR=3   Y=1.5   Z=-16.8   SpecialJt=No   GUID=e6519557-9586-420e-b294-bcca771942c8
   Joint=140   CoordSys=GLOBAL   CoordType=Cartesian   XorR=6   Y=1.5   Z=-16.7344389692158   SpecialJt=No   GUID=fb73fcfd-ff55-47b4-a1ec-8c70e10a7e55
   Joint=141   CoordSys=GLOBAL   CoordType=Cartesian   XorR=6   Y=1.5   Z=-16.8   SpecialJt=No   GUID=c7bd82af-a69f-43ee-9970-a6ee77922b30
   Joint=142   CoordSys=GLOBAL   CoordType=Cartesian   XorR=9   Y=1.5   Z=-16.7344389692158   SpecialJt=No   GUID=bd29788e-0aac-4233-8896-5ff6e5217331
   Joint=143   CoordSys=GLOBAL   CoordType=Cartesian   XorR=9   Y=1.5   Z=-16.8   SpecialJt=No   GUID=259939f9-935a-4d96-a75a-581fce177e35
   Joint=144   CoordSys=GLOBAL   CoordType=Cartesian   XorR=-9   Y=4.5   Z=-16.7344389692158   SpecialJt=No   GUID=88e3ffda-a56d-4985-9b10-b395107b0fbf
   Joint=145   CoordSys=GLOBAL   CoordType=Cartesian   XorR=-9   Y=4.5   Z=-16.8   SpecialJt=No   GUID=c434c950-dc86-4bee-8a94-4855873a6ad6
   Joint=146   CoordSys=GLOBAL   CoordType=Cartesian   XorR=-6   Y=4.5   Z=-16.7344389692158   SpecialJt=No   GUID=eec99932-5e62-4936-898a-97317fc0e720
   Joint=147   CoordSys=GLOBAL   CoordType=Cartesian   XorR=-6   Y=4.5   Z=-16.8   SpecialJt=No   GUID=71bb0e46-6483-41f7-9921-63ee3c88c5d7
   Joint=148   CoordSys=GLOBAL   CoordType=Cartesian   XorR=-3   Y=4.5   Z=-16.7344389692158   SpecialJt=No   GUID=ab117ecf-c08f-494f-9c2e-a9453d59c6bd
   Joint=149   CoordSys=GLOBAL   CoordType=Cartesian   XorR=-3   Y=4.5   Z=-16.8   SpecialJt=No   GUID=f526452f-eef2-47c0-9b38-d3419802820e
   Joint=150   CoordSys=GLOBAL   CoordType=Cartesian   XorR=0   Y=4.5   Z=-16.7344389692158   SpecialJt=No   GUID=6f434d8b-4ae1-4c7f-bdd6-b63150e6463e
   Joint=151   CoordSys=GLOBAL   CoordType=Cartesian   XorR=0   Y=4.5   Z=-16.8   SpecialJt=No   GUID=ed75d471-da3d-41f5-bf20-24c1412ab26b
   Joint=152   CoordSys=GLOBAL   CoordType=Cartesian   XorR=3   Y=4.5   Z=-16.7344389692158   SpecialJt=No   GUID=8a3373f8-3a28-4c95-8d42-5ef6d57c9a3b
   Joint=153   CoordSys=GLOBAL   CoordType=Cartesian   XorR=3   Y=4.5   Z=-16.8   SpecialJt=No   GUID=4d6efe92-3ba9-4e65-b0ba-2b2b46acdb9e
   Joint=154   CoordSys=GLOBAL   CoordType=Cartesian   XorR=6   Y=4.5   Z=-16.7344389692158   SpecialJt=No   GUID=7c387346-a843-4dbc-8134-a78acc4ab646
   Joint=155   CoordSys=GLOBAL   CoordType=Cartesian   XorR=6   Y=4.5   Z=-16.8   SpecialJt=No   GUID=7a4aaa46-0ad6-4d0d-aa5f-2712e1c60279
   Joint=156   CoordSys=GLOBAL   CoordType=Cartesian   XorR=9   Y=4.5   Z=-16.7344389692158   SpecialJt=No   GUID=954fa85a-b5a8-4545-91ca-07f4c7aa0bb0
   Joint=157   CoordSys=GLOBAL   CoordType=Cartesian   XorR=9   Y=4.5   Z=-16.8   SpecialJt=No   GUID=62af2ca9-7606-4904-815a-69281dea675b
   Joint=158   CoordSys=GLOBAL   CoordType=Cartesian   XorR=-10   Y=-5   Z=0   SpecialJt=No   GUID=c7c759bf-5896-455f-ac40-83e13cfbe1d4
   Joint=159   CoordSys=GLOBAL   CoordType=Cartesian   XorR=10   Y=-5   Z=0   SpecialJt=No   GUID=640643dc-5c1f-4438-b249-986b92861888
   Joint=160   CoordSys=GLOBAL   CoordType=Cartesian   XorR=-10   Y=5   Z=0   SpecialJt=No   GUID=0c60b85f-ac70-4e9a-94bf-23d6301005d8
   Joint=161   CoordSys=GLOBAL   CoordType=Cartesian   XorR=10   Y=5   Z=0   SpecialJt=No   GUID=7f46dd9c-ee5f-46ae-b2b0-adf190cb5181
 
TABLE:  "JOINT PATTERN DEFINITIONS"
   Pattern=Default
 
TABLE:  "JOINT RESTRAINT ASSIGNMENTS"
   Joint=96   U1=Yes   U2=Yes   U3=No   R1=Yes   R2=Yes   R3=Yes
   Joint=97   U1=No   U2=No   U3=Yes   R1=No   R2=No   R3=No
   Joint=99   U1=Yes   U2=Yes   U3=No   R1=Yes   R2=Yes   R3=Yes
   Joint=100   U1=No   U2=No   U3=Yes   R1=No   R2=No   R3=No
   Joint=102   U1=Yes   U2=Yes   U3=No   R1=Yes   R2=Yes   R3=Yes
   Joint=103   U1=No   U2=No   U3=Yes   R1=No   R2=No   R3=No
   Joint=105   U1=Yes   U2=Yes   U3=No   R1=Yes   R2=Yes   R3=Yes
   Joint=106   U1=No   U2=No   U3=Yes   R1=No   R2=No   R3=No
   Joint=108   U1=Yes   U2=Yes   U3=No   R1=Yes   R2=Yes   R3=Yes
   Joint=109   U1=No   U2=No   U3=Yes   R1=No   R2=No   R3=No
   Joint=111   U1=Yes   U2=Yes   U3=No   R1=Yes   R2=Yes   R3=Yes
   Joint=112   U1=No   U2=No   U3=Yes   R1=No   R2=No   R3=No
   Joint=114   U1=Yes   U2=Yes   U3=No   R1=Yes   R2=Yes   R3=Yes
   Joint=115   U1=No   U2=No   U3=Yes   R1=No   R2=No   R3=No
   Joint=116   U1=Yes   U2=Yes   U3=No   R1=Yes   R2=Yes   R3=Yes
   Joint=117   U1=No   U2=No   U3=Yes   R1=No   R2=No   R3=No
   Joint=118   U1=Yes   U2=Yes   U3=No   R1=Yes   R2=Yes   R3=Yes
   Joint=119   U1=No   U2=No   U3=Yes   R1=No   R2=No   R3=No
   Joint=120   U1=Yes   U2=Yes   U3=No   R1=Yes   R2=Yes   R3=Yes
   Joint=121   U1=No   U2=No   U3=Yes   R1=No   R2=No   R3=No
   Joint=122   U1=Yes   U2=Yes   U3=No   R1=Yes   R2=Yes   R3=Yes
   Joint=123   U1=No   U2=No   U3=Yes   R1=No   R2=No   R3=No
   Joint=124   U1=Yes   U2=Yes   U3=No   R1=Yes   R2=Yes   R3=Yes
   Joint=125   U1=No   U2=No   U3=Yes   R1=No   R2=No   R3=No
   Joint=126   U1=Yes   U2=Yes   U3=No   R1=Yes   R2=Yes   R3=Yes
   Joint=127   U1=No   U2=No   U3=Yes   R1=No   R2=No   R3=No
   Joint=128   U1=Yes   U2=Yes   U3=No   R1=Yes   R2=Yes   R3=Yes
   Joint=129   U1=No   U2=No   U3=Yes   R1=No   R2=No   R3=No
   Joint=130   U1=Yes   U2=Yes   U3=No   R1=Yes   R2=Yes   R3=Yes
   Joint=131   U1=No   U2=No   U3=Yes   R1=No   R2=No   R3=No
   Joint=132   U1=Yes   U2=Yes   U3=No   R1=Yes   R2=Yes   R3=Yes
   Joint=133   U1=No   U2=No   U3=Yes   R1=No   R2=No   R3=No
   Joint=134   U1=Yes   U2=Yes   U3=No   R1=Yes   R2=Yes   R3=Yes
   Joint=135   U1=No   U2=No   U3=Yes   R1=No   R2=No   R3=No
   Joint=136   U1=Yes   U2=Yes   U3=No   R1=Yes   R2=Yes   R3=Yes
   Joint=137   U1=No   U2=No   U3=Yes   R1=No   R2=No   R3=No
   Joint=138   U1=Yes   U2=Yes   U3=No   R1=Yes   R2=Yes   R3=Yes
   Joint=139   U1=No   U2=No   U3=Yes   R1=No   R2=No   R3=No
   Joint=140   U1=Yes   U2=Yes   U3=No   R1=Yes   R2=Yes   R3=Yes
   Joint=141   U1=No   U2=No   U3=Yes   R1=No   R2=No   R3=No
# ... 16 like lines cut
 
TABLE:  "LOAD CASE DEFINITIONS"
   Case=DEAD   Type=LinStatic   InitialCond=Zero   DesTypeOpt="Prog Det"   DesignType=Dead   DesActOpt="Prog Det"   DesignAct=Non-Composite   AutoType=None   RunCase=Yes
   Case=MODAL   Type=LinModal   InitialCond=Zero   DesTypeOpt="Prog Det"   DesignType=Other   DesActOpt="Prog Det"   DesignAct=Other   AutoType=None   RunCase=Yes
   Case=LL   Type=LinStatic   InitialCond=Zero   DesTypeOpt="Prog Det"   DesignType=Live   DesActOpt="Prog Det"   DesignAct="Short-Term Composite"   AutoType=None   RunCase=Yes
 
TABLE:  "LOAD PATTERN DEFINITIONS"
   LoadPat=DEAD   DesignType=Dead   SelfWtMult=1
   LoadPat=LL   DesignType=Live   SelfWtMult=0
 
TABLE:  "MASS SOURCE"
   MassSource=MSSSRC1   Elements=Yes   Masses=Yes   Loads=No   IsDefault=Yes
 
TABLE:  "MATERIAL PROPERTIES 01 - GENERAL"
   Material=A706   Type=Rebar   SymType=Uniaxial   TempDepend=No   Color=Gray8Dark   GUID=30185aab-1311-4f4b-9ffe-ddad707d22d9   Notes="ASTM A706 added 8/23/2025 4:27:57 PM"
   Material=BTCT   Type=Concrete   SymType=Isotropic   TempDepend=No   Color=Blue   Notes="Concrete added 24-Feb-23 16:30:01"
   Material=BTCTCOC   Type=Concrete   SymType=Isotropic   TempDepend=No   Color=Blue   Notes="Concrete added 24-Feb-23 16:30:01"
   Material=Steel   Type=Steel   SymType=Isotropic   TempDepend=No   Color=Magenta   GUID=2f952889-4898-4964-97a4-5fb5c5008d33   Notes="Steel added 8/24/2025 2:51:43 PM"
   Material=Tendon   Type=Tendon   SymType=Uniaxial   TempDepend=No   Color=Yellow   GUID=7dfcd093-823e-4b3a-b96f-35d5bcaf456f   Notes="Tendon added 8/24/2025 2:51:43 PM"
 
TABLE:  "MATERIAL PROPERTIES 02 - BASIC MECHANICAL PROPERTIES"
   Material=A706   UnitWeight=7.84904757236607   UnitMass=0.800380070686609   E1=20389019.1580383   A1=1.16999994421006E-05
   Material=BTCT   UnitWeight=2.40276966501002   UnitMass=0.245014307353044   E1=2900000   G12=1208333.33333333   U12=0.2   A1=9.9E-06
   Material=BTCTCOC   UnitWeight=2.40276966501002   UnitMass=0.245014307353044   E1=3800000000   G12=1583333333.33333   U12=0.2   A1=9.9E-06
   Material=Steel   UnitWeight=7.84904757236607   UnitMass=0.800380070686609   E1=20389019.1580383   G12=7841930.44539935   U12=0.3   A1=1.17E-05
   Material=Tendon   UnitWeight=7.84904757236607   UnitMass=0.800380070686609   E1=20037484.3449687   A1=1.16999994421006E-05
 
TABLE:  "MATERIAL PROPERTIES 03A - STEEL DATA"
   Material=Steel   Fy=35153.4813069626   Fu=45699.5256990514   EffFy=38668.8294376589   EffFu=50269.4782689565   SSCurveOpt=Simple   SSHysType=Kinematic   SHard=0.015   SMax=0.11   SRup=0.17   FinalSlope=-0.1   CoupModType="Von Mises"
 
TABLE:  "MATERIAL PROPERTIES 03B - CONCRETE DATA"
   Material=BTCT   Fc=2812.27850455701   eFc=2812.27850455701   LtWtConc=No   SSCurveOpt=Mander   SSHysType=Takeda   SFc=0.002   SCap=0.005   FinalSlope=-0.1   FAngle=0   DAngle=0   CoupModType="Modified Darwin-Pecknold"
   Material=BTCTCOC   Fc=2812.27850455701   eFc=2812.27850455701   LtWtConc=No   SSCurveOpt=Mander   SSHysType=Takeda   SFc=0.002   SCap=0.005   FinalSlope=-0.1   FAngle=0   DAngle=0   CoupModType="Modified Darwin-Pecknold"
 
TABLE:  "MATERIAL PROPERTIES 03E - REBAR DATA"
   Material=A706   Fy=42184.1775683551   Fu=56245.5700911402   EffFy=46402.5953251907   EffFu=61870.1271002542   SSCurveOpt=Simple   SSHysType=Kinematic   SHard=0.011   SCap=0.11   FinalSlope=-0.1   UseCTDef=No   CoupModType="Von Mises"
 
TABLE:  "MATERIAL PROPERTIES 03F - TENDON DATA"
   Material=Tendon   Fy=172322.365366731   Fu=189828.799057598   SSCurveOpt="270 ksi"   SSHysType=Kinematic   FinalSlope=-0.1   CoupModType="Von Mises"
 
TABLE:  "MATERIAL PROPERTIES 03J - COUPLED NONLINEAR VON MISES DATA"
   Material=A706   YieldStress=46402.5953251907   LinIsoHard=No   LinKinHard=No   NLIsoSaHard=No
   Material=Steel   YieldStress=38668.8294376589   LinIsoHard=No   LinKinHard=No   NLIsoSaHard=No
   Material=Tendon   YieldStress=172322.365366731   LinIsoHard=No   LinKinHard=No   NLIsoSaHard=No
 
TABLE:  "MATERIAL PROPERTIES 06 - DAMPING PARAMETERS"
   Material=A706   ModalRatio=0   VisMass=0   VisStiff=0   HysMass=0   HysStiff=0
   Material=BTCT   ModalRatio=0   VisMass=0   VisStiff=0   HysMass=0   HysStiff=0
   Material=BTCTCOC   ModalRatio=0   VisMass=0   VisStiff=0   HysMass=0   HysStiff=0
   Material=Steel   ModalRatio=0   VisMass=0   VisStiff=0   HysMass=0   HysStiff=0
   Material=Tendon   ModalRatio=0   VisMass=0   VisStiff=0   HysMass=0   HysStiff=0
 
TABLE:  "MATERIAL PROPERTIES 09 - ACCEPTANCE CRITERIA"
   Material=A706   IOTens=0.01   LSTens=0.02   CPTens=0.05   IOComp=-0.005   LSComp=-0.01   CPComp=-0.02
   Material=BTCT   IOTens=0.01   LSTens=0.02   CPTens=0.05   IOComp=-0.003   LSComp=-0.006   CPComp=-0.015   IgnoreTens=Yes
   Material=BTCTCOC   IOTens=0.01   LSTens=0.02   CPTens=0.05   IOComp=-0.003   LSComp=-0.006   CPComp=-0.015   IgnoreTens=Yes
   Material=Steel   IOTens=0.01   LSTens=0.02   CPTens=0.05   IOComp=-0.005   LSComp=-0.01   CPComp=-0.02
   Material=Tendon   IOTens=0.015   LSTens=0.023   CPTens=0.03   IOComp=-0.015   LSComp=-0.023   CPComp=-0.03
 
TABLE:  "OPTIONS - COLORS - DISPLAY"
   DeviceType=Screen   Points=Blue   LinesFrame=Blue   LinesFrmDL=Blue   LinesCable=Green   LinesTendon=Green   SpringLinks=Green   Restraints=Green   Releases=Green   Axes=Cyan   Text=Black   ShadowLines=Gray8Dark   GuideLines=Gray8Dark _
        Highlight=Red   Selection=10504778   AreaFillBot=Red   AreaFillTop=16744703   AreaFillSd=Red   AreaEdge=DarkRed   SolidF1=Red   SolidF2=Blue   SolidF3=Green   SolidF4=Yellow   SolidF5=White   SolidF6=Cyan   SolidEdge=DarkRed _
        Floor=Gray4   Background=White   BGLowLeft=White   BGLowRight=White   BGUpRight=White   Darkness=0.5
   DeviceType=Printer   Points=Gray8Dark   LinesFrame=Black   LinesFrmDL=Gray4   LinesCable=Black   LinesTendon=Black   SpringLinks=Gray8Dark   Restraints=Gray8Dark   Releases=Gray4   Axes=Black   Text=Black   ShadowLines=Gray4 _
        GuideLines=Gray4   Highlight=Black   Selection=Black   AreaFillBot=Gray4   AreaFillTop=Gray8Dark   AreaFillSd=Gray4   AreaEdge=Black   SolidF1=Gray1Light   SolidF2=Gray2   SolidF3=Gray3   SolidF4=Gray4   SolidF5=Gray5 _
        SolidF6=Gray6   SolidEdge=Black   Floor=Gray4   Background=White   BGLowLeft=White   BGLowRight=White   BGUpRight=White   Darkness=0.5
   DeviceType="Color Printer"   Points=Blue   LinesFrame=Blue   LinesFrmDL=Blue   LinesCable=Green   LinesTendon=Green   SpringLinks=Green   Restraints=Green   Releases=Green   Axes=Cyan   Text=Black   ShadowLines=Gray8Dark _
        GuideLines=Gray8Dark   Highlight=Red   Selection=10504778   AreaFillBot=Red   AreaFillTop=16744703   AreaFillSd=Red   AreaEdge=DarkRed   SolidF1=Red   SolidF2=Blue   SolidF3=Green   SolidF4=Yellow   SolidF5=White   SolidF6=Cyan _
        SolidEdge=DarkRed   Floor=Gray4   Background=White   BGLowLeft=White   BGLowRight=White   BGUpRight=White   Darkness=0.5
 
TABLE:  "OPTIONS - COLORS - OUTPUT"
   DeviceType=Screen   Contour1=13107400   Contour2=6553828   Contour3=Red   Contour4=16639   Contour5=Orange   Contour6=43775   Contour7=54527   Contour8=Yellow   Contour9=65408   Contour10=Green   Contour11=8453888   Contour12=Cyan _
        Contour13=16755200   Contour14=16733440   Contour15=Blue   Transpare=0.5   Ratio1=Cyan   Ratio2=Green   Ratio3=Yellow   Ratio4=Orange   Ratio5=Red   RatioNotD=Gray4   RatioNotC=Red   RatioVal1=0.5   RatioVal2=0.7   RatioVal3=0.9 _
        RatioVal4=1   DFillPos=Blue   DFillNeg=Red   DFillRPos=Green   DFillRNeg=Green
   DeviceType=Printer   Contour1=Black   Contour2=3158064   Contour3=4210752   Contour4=5263440   Contour5=6316128   Contour6=7368816   Contour7=Gray8Dark   Contour8=Gray7   Contour9=Gray6   Contour10=Gray5   Contour11=Gray4 _
        Contour12=Gray3   Contour13=Gray2   Contour14=Gray1Light   Contour15=White   Transpare=0   Ratio1=Gray2   Ratio2=Gray4   Ratio3=Gray8Dark   Ratio4=4210752   Ratio5=Black   RatioNotD=Gray4   RatioNotC=Black   RatioVal1=0.5 _
        RatioVal2=0.7   RatioVal3=0.9   RatioVal4=1   DFillPos=Gray8Dark   DFillNeg=Gray8Dark   DFillRPos=4210752   DFillRNeg=4210752
   DeviceType="Color Printer"   Contour1=13107400   Contour2=6553828   Contour3=Red   Contour4=16639   Contour5=Orange   Contour6=43775   Contour7=54527   Contour8=Yellow   Contour9=65408   Contour10=Green   Contour11=8453888 _
        Contour12=Cyan   Contour13=16755200   Contour14=16733440   Contour15=Blue   Transpare=0   Ratio1=Cyan   Ratio2=Green   Ratio3=Yellow   Ratio4=Orange   Ratio5=Red   RatioNotD=Gray4   RatioNotC=Red   RatioVal1=0.5   RatioVal2=0.7 _
        RatioVal3=0.9   RatioVal4=1   DFillPos=Blue   DFillNeg=Red   DFillRPos=Green   DFillRNeg=Green
 
TABLE:  "OVERWRITES - CONCRETE DESIGN - CSA-A233-14"
   Frame=46   DesignSect="Program Determined"   FrameType="Program Determined"   RLLF=0   XLMajor=0   XLMinor=0   XKMajor=0   XKMinor=0   CmMajor=0   CmMinor=0   DbMajor=0   DbMinor=0   DsMajor=0   DsMinor=0   Rd=0   Ro=0   MaxAggSize=0
   Frame=47   DesignSect="Program Determined"   FrameType="Program Determined"   RLLF=0   XLMajor=0   XLMinor=0   XKMajor=0   XKMinor=0   CmMajor=0   CmMinor=0   DbMajor=0   DbMinor=0   DsMajor=0   DsMinor=0   Rd=0   Ro=0   MaxAggSize=0
   Frame=48   DesignSect="Program Determined"   FrameType="Program Determined"   RLLF=0   XLMajor=0   XLMinor=0   XKMajor=0   XKMinor=0   CmMajor=0   CmMinor=0   DbMajor=0   DbMinor=0   DsMajor=0   DsMinor=0   Rd=0   Ro=0   MaxAggSize=0
   Frame=49   DesignSect="Program Determined"   FrameType="Program Determined"   RLLF=0   XLMajor=0   XLMinor=0   XKMajor=0   XKMinor=0   CmMajor=0   CmMinor=0   DbMajor=0   DbMinor=0   DsMajor=0   DsMinor=0   Rd=0   Ro=0   MaxAggSize=0
   Frame=50   DesignSect="Program Determined"   FrameType="Program Determined"   RLLF=0   XLMajor=0   XLMinor=0   XKMajor=0   XKMinor=0   CmMajor=0   CmMinor=0   DbMajor=0   DbMinor=0   DsMajor=0   DsMinor=0   Rd=0   Ro=0   MaxAggSize=0
   Frame=51   DesignSect="Program Determined"   FrameType="Program Determined"   RLLF=0   XLMajor=0   XLMinor=0   XKMajor=0   XKMinor=0   CmMajor=0   CmMinor=0   DbMajor=0   DbMinor=0   DsMajor=0   DsMinor=0   Rd=0   Ro=0   MaxAggSize=0
   Frame=52   DesignSect="Program Determined"   FrameType="Program Determined"   RLLF=0   XLMajor=0   XLMinor=0   XKMajor=0   XKMinor=0   CmMajor=0   CmMinor=0   DbMajor=0   DbMinor=0   DsMajor=0   DsMinor=0   Rd=0   Ro=0   MaxAggSize=0
   Frame=53   DesignSect="Program Determined"   FrameType="Program Determined"   RLLF=0   XLMajor=0   XLMinor=0   XKMajor=0   XKMinor=0   CmMajor=0   CmMinor=0   DbMajor=0   DbMinor=0   DsMajor=0   DsMinor=0   Rd=0   Ro=0   MaxAggSize=0
   Frame=54   DesignSect="Program Determined"   FrameType="Program Determined"   RLLF=0   XLMajor=0   XLMinor=0   XKMajor=0   XKMinor=0   CmMajor=0   CmMinor=0   DbMajor=0   DbMinor=0   DsMajor=0   DsMinor=0   Rd=0   Ro=0   MaxAggSize=0
   Frame=55   DesignSect="Program Determined"   FrameType="Program Determined"   RLLF=0   XLMajor=0   XLMinor=0   XKMajor=0   XKMinor=0   CmMajor=0   CmMinor=0   DbMajor=0   DbMinor=0   DsMajor=0   DsMinor=0   Rd=0   Ro=0   MaxAggSize=0
   Frame=56   DesignSect="Program Determined"   FrameType="Program Determined"   RLLF=0   XLMajor=0   XLMinor=0   XKMajor=0   XKMinor=0   CmMajor=0   CmMinor=0   DbMajor=0   DbMinor=0   DsMajor=0   DsMinor=0   Rd=0   Ro=0   MaxAggSize=0
   Frame=57   DesignSect="Program Determined"   FrameType="Program Determined"   RLLF=0   XLMajor=0   XLMinor=0   XKMajor=0   XKMinor=0   CmMajor=0   CmMinor=0   DbMajor=0   DbMinor=0   DsMajor=0   DsMinor=0   Rd=0   Ro=0   MaxAggSize=0
   Frame=58   DesignSect="Program Determined"   FrameType="Program Determined"   RLLF=0   XLMajor=0   XLMinor=0   XKMajor=0   XKMinor=0   CmMajor=0   CmMinor=0   DbMajor=0   DbMinor=0   DsMajor=0   DsMinor=0   Rd=0   Ro=0   MaxAggSize=0
   Frame=59   DesignSect="Program Determined"   FrameType="Program Determined"   RLLF=0   XLMajor=0   XLMinor=0   XKMajor=0   XKMinor=0   CmMajor=0   CmMinor=0   DbMajor=0   DbMinor=0   DsMajor=0   DsMinor=0   Rd=0   Ro=0   MaxAggSize=0
   Frame=60   DesignSect="Program Determined"   FrameType="Program Determined"   RLLF=0   XLMajor=0   XLMinor=0   XKMajor=0   XKMinor=0   CmMajor=0   CmMinor=0   DbMajor=0   DbMinor=0   DsMajor=0   DsMinor=0   Rd=0   Ro=0   MaxAggSize=0
   Frame=61   DesignSect="Program Determined"   FrameType="Program Determined"   RLLF=0   XLMajor=0   XLMinor=0   XKMajor=0   XKMinor=0   CmMajor=0   CmMinor=0   DbMajor=0   DbMinor=0   DsMajor=0   DsMinor=0   Rd=0   Ro=0   MaxAggSize=0
   Frame=62   DesignSect="Program Determined"   FrameType="Program Determined"   RLLF=0   XLMajor=0   XLMinor=0   XKMajor=0   XKMinor=0   CmMajor=0   CmMinor=0   DbMajor=0   DbMinor=0   DsMajor=0   DsMinor=0   Rd=0   Ro=0   MaxAggSize=0
   Frame=63   DesignSect="Program Determined"   FrameType="Program Determined"   RLLF=0   XLMajor=0   XLMinor=0   XKMajor=0   XKMinor=0   CmMajor=0   CmMinor=0   DbMajor=0   DbMinor=0   DsMajor=0   DsMinor=0   Rd=0   Ro=0   MaxAggSize=0
   Frame=64   DesignSect="Program Determined"   FrameType="Program Determined"   RLLF=0   XLMajor=0   XLMinor=0   XKMajor=0   XKMinor=0   CmMajor=0   CmMinor=0   DbMajor=0   DbMinor=0   DsMajor=0   DsMinor=0   Rd=0   Ro=0   MaxAggSize=0
   Frame=65   DesignSect="Program Determined"   FrameType="Program Determined"   RLLF=0   XLMajor=0   XLMinor=0   XKMajor=0   XKMinor=0   CmMajor=0   CmMinor=0   DbMajor=0   DbMinor=0   DsMajor=0   DsMinor=0   Rd=0   Ro=0   MaxAggSize=0
# ... 60 like lines cut
 
TABLE:  "PREFERENCES - ALUMINUM DESIGN - AA 2015"
   THDesign=Envelopes   SRatioLimit=1   Provision=ASD   LatFact=1.33333333333333   UseLatFact=No   Bridge=No   OmegaTy=1.65   OmegaTr=1.95   OmegaC=1.65   OmegaBo=1.65   OmegaBr=1.95   OmegaVo=1.65   OmegaVr=1.95
 
TABLE:  "PREFERENCES - COLD FORMED DESIGN - AISI-ASD96"
   THDesign=Envelopes   FrameType="Braced Frame"   SRatioLimit=1   MaxIter=1   OmegaBS=1.67   OmegaBUS=1.67   OmegaBLTB=1.67   OmegaVS=1.67   OmegaVNS=1.5   OmegaT=1.67   OmegaC=1.8
 
TABLE:  "PREFERENCES - CONCRETE DESIGN - CSA-A233-14"
   THDesign=Envelopes   NumCurves=24   NumPoints=11   MinEccen=Yes   BCCDesign=Yes   CTorsion=Yes   PatLLF=0.75   UFLimit=0.95   PhiS=0.85   PhiC=0.65
 
TABLE:  "PREFERENCES - CONCRETE SHELL DESIGN - EUROCODE 2-2004"
   Country="CEN Default"   GammaS=1.15   GammaC=1.5   AlphaCC=1
 
TABLE:  "PREFERENCES - DIMENSIONAL"
   MergeTol=0.001   FineGrid=0.25   Nudge=0.25   SelectTol=3   SnapTol=12   SLineThick=1   PLineThick=4   MaxFont=8   MinFont=3   AutoZoom=10   ShrinkFact=70   TextFileLen=240
 
TABLE:  "PREFERENCES - STEEL DESIGN - AISC 360-10"
   THDesign=Envelopes   FrameType=SMF   PatLLF=0.75   SRatioLimit=0.95   MaxIter=1   SDC=D   SeisCode=No   SeisLoad=No   ImpFactor=1   SystemRho=1   SystemSds=0.5   SystemR=8   SystemCd=5.5   Omega0=3   Provision=LRFD _
        AMethod="Direct Analysis"   SOMethod="General 2nd Order"   SRMethod="Tau-b Fixed"   NLCoeff=0.002   PhiB=0.9   PhiC=0.9   PhiTY=0.9   PhiTF=0.75   PhiV=0.9   PhiVRolledI=1   PhiVT=0.9   PlugWeld=Yes   HSSWelding=ERW   HSSReduceT=No _
        CheckDefl=No   DLRat=120   SDLAndLLRat=120   LLRat=360   TotalRat=240   NetRat=240
 
TABLE:  "PROGRAM CONTROL"
   ProgramName=SAP2000   Version=24.0.0   CurrUnits="Tonf, m, C"   SteelCode="AISC 360-10"   ConcCode="CSA A23.3-14"   AlumCode="AA 2015"   ColdCode=AISI-ASD96   RegenHinge=Yes
 
TABLE:  "PROJECT INFORMATION"
   Item="Company Name"   Data=po
   Item="Client Name"
   Item="Project Name"
   Item="Project Number"
   Item="Model Name"
   Item="Model Description"
   Item="Revision Number"
   Item="Frame Type"
   Item=Engineer
   Item=Checker
   Item=Supervisor
   Item="Issue Code"
   Item="Design Code"
 
TABLE:  "REBAR SIZES"
   RebarID=#2   Area=3.2258E-05   Diameter=0.00635
   RebarID=#3   Area=7.09675996154547E-05   Diameter=0.009525
   RebarID=#4   Area=0.000129032001922727   Diameter=0.0127
   RebarID=#5   Area=0.000199999601538181   Diameter=0.015875
   RebarID=#6   Area=0.000283870398461819   Diameter=0.01905
   RebarID=#7   Area=0.000387096015381813   Diameter=0.022225
   RebarID=#8   Area=0.000509676413843632   Diameter=0.0254
   RebarID=#9   Area=0.00064516   Diameter=0.0286512005329132
   RebarID=#10   Area=0.00081935318769455   Diameter=0.0322579995155334
   RebarID=#11   Area=0.00100644956308365   Diameter=0.0358139991521835
   RebarID=#14   Area=0.00145161   Diameter=0.0430021989583969
   RebarID=#18   Area=0.00258064   Diameter=0.0573277992248535
   RebarID=10M   Area=0.000100000004162606   Diameter=0.0113000003604438
   RebarID=15M   Area=0.000200000008325212   Diameter=0.0160000002402959
   RebarID=20M   Area=0.000300000012487818   Diameter=0.0195000002928606
   RebarID=25M   Area=0.000500000020813031   Diameter=0.0252000011414055
   RebarID=30M   Area=0.000700000029138243   Diameter=0.0299000000675832
   RebarID=35M   Area=0.00100000004162606   Diameter=0.0357000012990997
   RebarID=45M   Area=0.00150000006243909   Diameter=0.0437000014192476
   RebarID=55M   Area=0.00250000010406515   Diameter=0.056400002372922
   RebarID=6d   Area=2.83000004150781E-05   Diameter=0.00600000009011096
   RebarID=8d   Area=5.03000013308514E-05   Diameter=0.00800000012014795
   RebarID=10d   Area=7.85000032676458E-05   Diameter=0.0100000001501849
   RebarID=12d   Area=0.000113000004703745   Diameter=0.0120000001802219
   RebarID=14d   Area=0.000154000006410413   Diameter=0.0140000002102589
   RebarID=16d   Area=0.000201000008366838   Diameter=0.0160000002402959
   RebarID=20d   Area=0.000314000013070583   Diameter=0.0200000003003699
   RebarID=25d   Area=0.000491000020438396   Diameter=0.0250000003754623
   RebarID=26d   Area=0.000531000022103439   Diameter=0.0260000003904808
   RebarID=28d   Area=0.000616000025641654   Diameter=0.0280000004205178
   RebarID=N12   Area=0.000113000004703745   Diameter=0.0120000001802219
   RebarID=N16   Area=0.000201000008366838   Diameter=0.0160000002402959
   RebarID=N20   Area=0.000314000013070583   Diameter=0.0200000003003699
   RebarID=N24   Area=0.00045200001881498   Diameter=0.0240000003604438
   RebarID=N28   Area=0.000616000025641654   Diameter=0.0280000004205178
   RebarID=N32   Area=0.000804000033467353   Diameter=0.0320000004805918
   RebarID=N36   Area=0.00102000004245858   Diameter=0.0360000005406658
 
TABLE:  "SOLID PROPERTY DEFINITIONS"
   SolidProp=Solid1   Material=BTCT   MatAngleA=0   MatAngleB=0   MatAngleC=0   InComp=Yes   Color=Gray8Dark
 
END TABLE DATA
