File D:\ResearchLab\02_Projects\02_Projects\Tap chi XD_SFOA\code\SOO_MPJ\MPJ_Sap\SOO_Displacement_W05\MPJ_5.$2k was saved on m/d/yy at h:mm:ss
 
TABLE:  "ACTIVE DEGREES OF FREEDOM"
   UX=Yes   UY=Yes   UZ=Yes   RX=Yes   RY=Yes   RZ=Yes
 
TABLE:  "ANALYSIS OPTIONS"
   Solver=Advanced   SolverProc=Auto   Force32Bit=No   StiffCase=None   GeomMod=None   HingeOpt="In Elements"   NumAThreads=0   MaxFileSize=0   NumDThreads=0   NumRThreads=0   UseMMFiles="Program Determined"   AllowDiff=No
 
TABLE:  "AREA AUTO MESH ASSIGNMENTS"
   Area=328663   MeshType="Number of Elements"   MeshGroup=ALL   Number1=3   Number2=3   LocalEdge=No   LocalFace=No   SuppEdge=No   SuppFace=No   SubMesh=No
   Area=328664   MeshType="Number of Elements"   MeshGroup=ALL   Number1=3   Number2=3   LocalEdge=No   LocalFace=No   SuppEdge=No   SuppFace=No   SubMesh=No
   Area=328665   MeshType="Number of Elements"   MeshGroup=ALL   Number1=3   Number2=3   LocalEdge=No   LocalFace=No   SuppEdge=No   SuppFace=No   SubMesh=No
   Area=328666   MeshType="Number of Elements"   MeshGroup=ALL   Number1=3   Number2=3   LocalEdge=No   LocalFace=No   SuppEdge=No   SuppFace=No   SubMesh=No
   Area=328667   MeshType="Number of Elements"   MeshGroup=ALL   Number1=3   Number2=3   LocalEdge=No   LocalFace=No   SuppEdge=No   SuppFace=No   SubMesh=No
   Area=328668   MeshType="Number of Elements"   MeshGroup=ALL   Number1=3   Number2=3   LocalEdge=No   LocalFace=No   SuppEdge=No   SuppFace=No   SubMesh=No
   Area=328669   MeshType="Number of Elements"   MeshGroup=ALL   Number1=3   Number2=3   LocalEdge=No   LocalFace=No   SuppEdge=No   SuppFace=No   SubMesh=No
   Area=328670   MeshType="Number of Elements"   MeshGroup=ALL   Number1=3   Number2=3   LocalEdge=No   LocalFace=No   SuppEdge=No   SuppFace=No   SubMesh=No
   Area=328671   MeshType="Number of Elements"   MeshGroup=ALL   Number1=3   Number2=3   LocalEdge=No   LocalFace=No   SuppEdge=No   SuppFace=No   SubMesh=No
   Area=328672   MeshType="Number of Elements"   MeshGroup=ALL   Number1=3   Number2=3   LocalEdge=No   LocalFace=No   SuppEdge=No   SuppFace=No   SubMesh=No
   Area=328673   MeshType="Number of Elements"   MeshGroup=ALL   Number1=3   Number2=3   LocalEdge=No   LocalFace=No   SuppEdge=No   SuppFace=No   SubMesh=No
   Area=328674   MeshType="Number of Elements"   MeshGroup=ALL   Number1=3   Number2=3   LocalEdge=No   LocalFace=No   SuppEdge=No   SuppFace=No   SubMesh=No
   Area=328675   MeshType="Number of Elements"   MeshGroup=ALL   Number1=3   Number2=3   LocalEdge=No   LocalFace=No   SuppEdge=No   SuppFace=No   SubMesh=No
   Area=328676   MeshType="Number of Elements"   MeshGroup=ALL   Number1=3   Number2=3   LocalEdge=No   LocalFace=No   SuppEdge=No   SuppFace=No   SubMesh=No
   Area=328677   MeshType="Number of Elements"   MeshGroup=ALL   Number1=3   Number2=3   LocalEdge=No   LocalFace=No   SuppEdge=No   SuppFace=No   SubMesh=No
   Area=328678   MeshType="Number of Elements"   MeshGroup=ALL   Number1=3   Number2=3   LocalEdge=No   LocalFace=No   SuppEdge=No   SuppFace=No   SubMesh=No
   Area=328679   MeshType="Number of Elements"   MeshGroup=ALL   Number1=3   Number2=3   LocalEdge=No   LocalFace=No   SuppEdge=No   SuppFace=No   SubMesh=No
   Area=328680   MeshType="Number of Elements"   MeshGroup=ALL   Number1=3   Number2=3   LocalEdge=No   LocalFace=No   SuppEdge=No   SuppFace=No   SubMesh=No
   Area=328681   MeshType="Number of Elements"   MeshGroup=ALL   Number1=3   Number2=3   LocalEdge=No   LocalFace=No   SuppEdge=No   SuppFace=No   SubMesh=No
   Area=328682   MeshType="Number of Elements"   MeshGroup=ALL   Number1=3   Number2=3   LocalEdge=No   LocalFace=No   SuppEdge=No   SuppFace=No   SubMesh=No
# ... 20 like lines cut
 
TABLE:  "AREA LOADS - UNIFORM"
   Area=328663   LoadPat=LL   CoordSys=GLOBAL   Dir=Gravity   UnifLoad=1.00034158457019
   Area=328664   LoadPat=LL   CoordSys=GLOBAL   Dir=Gravity   UnifLoad=1.00034158457019
   Area=328665   LoadPat=LL   CoordSys=GLOBAL   Dir=Gravity   UnifLoad=1.00034158457019
   Area=328666   LoadPat=LL   CoordSys=GLOBAL   Dir=Gravity   UnifLoad=1.00034158457019
   Area=328667   LoadPat=LL   CoordSys=GLOBAL   Dir=Gravity   UnifLoad=1.00034158457019
   Area=328668   LoadPat=LL   CoordSys=GLOBAL   Dir=Gravity   UnifLoad=1.00034158457019
   Area=328669   LoadPat=LL   CoordSys=GLOBAL   Dir=Gravity   UnifLoad=1.00034158457019
   Area=328670   LoadPat=LL   CoordSys=GLOBAL   Dir=Gravity   UnifLoad=1.00034158457019
   Area=328671   LoadPat=LL   CoordSys=GLOBAL   Dir=Gravity   UnifLoad=1.00034158457019
   Area=328672   LoadPat=LL   CoordSys=GLOBAL   Dir=Gravity   UnifLoad=1.00034158457019
   Area=328673   LoadPat=LL   CoordSys=GLOBAL   Dir=Gravity   UnifLoad=1.00034158457019
   Area=328674   LoadPat=LL   CoordSys=GLOBAL   Dir=Gravity   UnifLoad=1.00034158457019
   Area=328675   LoadPat=LL   CoordSys=GLOBAL   Dir=Gravity   UnifLoad=1.00034158457019
   Area=328676   LoadPat=LL   CoordSys=GLOBAL   Dir=Gravity   UnifLoad=1.00034158457019
   Area=328677   LoadPat=LL   CoordSys=GLOBAL   Dir=Gravity   UnifLoad=1.00034158457019
   Area=328678   LoadPat=LL   CoordSys=GLOBAL   Dir=Gravity   UnifLoad=1.00034158457019
   Area=328679   LoadPat=LL   CoordSys=GLOBAL   Dir=Gravity   UnifLoad=1.00034158457019
   Area=328680   LoadPat=LL   CoordSys=GLOBAL   Dir=Gravity   UnifLoad=1.00034158457019
   Area=328681   LoadPat=LL   CoordSys=GLOBAL   Dir=Gravity   UnifLoad=1.00034158457019
   Area=328682   LoadPat=LL   CoordSys=GLOBAL   Dir=Gravity   UnifLoad=1.00034158457019
# ... 20 like lines cut
 
TABLE:  "AREA SECTION ASSIGNMENTS"
   Area=328663   Section=Deck   MatProp=Default
   Area=328664   Section=Deck   MatProp=Default
   Area=328665   Section=Deck   MatProp=Default
   Area=328666   Section=Deck   MatProp=Default
   Area=328667   Section=Deck   MatProp=Default
   Area=328668   Section=Deck   MatProp=Default
   Area=328669   Section=Deck   MatProp=Default
   Area=328670   Section=Deck   MatProp=Default
   Area=328671   Section=Deck   MatProp=Default
   Area=328672   Section=Deck   MatProp=Default
   Area=328673   Section=Deck   MatProp=Default
   Area=328674   Section=Deck   MatProp=Default
   Area=328675   Section=Deck   MatProp=Default
   Area=328676   Section=Deck   MatProp=Default
   Area=328677   Section=Deck   MatProp=Default
   Area=328678   Section=Deck   MatProp=Default
   Area=328679   Section=Deck   MatProp=Default
   Area=328680   Section=Deck   MatProp=Default
   Area=328681   Section=Deck   MatProp=Default
   Area=328682   Section=Deck   MatProp=Default
# ... 20 like lines cut
 
TABLE:  "AREA SECTION PROPERTIES"
   Section=Deck   Material=BTCT   MatAngle=0   AreaType=Shell   Type=Shell-Thin   DrillDOF=Yes   Thickness=0.3   BendThick=0.3   Color=Green   F11Mod=1   F22Mod=1   F12Mod=1   M11Mod=1   M22Mod=1   M12Mod=1   V13Mod=1   V23Mod=1   MMod=1 _
        WMod=1   Notes="Added 24-Feb-23 16:56:47"
 
TABLE:  "AREA SECTION PROPERTY DESIGN PARAMETERS"
   Section=Deck   RebarMat=None   RebarOpt=Default
 
TABLE:  "AREA SECTION PROPERTY - TIME DEPENDENT"
   Section=Deck   TypeSize=User   AutoSFSize=1   UserValSize=0.1
 
TABLE:  "AUTO COMBINATION OPTION DATA 01 - GENERAL"
   DesignType=Concrete   AutoGen=Yes
 
TABLE:  "AUTO COMBINATION OPTION DATA 02 - USER DATA"
   DesignType=Concrete   LSType=Strength   LCName=DEAD
   DesignType=Concrete   LSType=Strength   LCName=LL
 
TABLE:  "AUTO WAVE 3 - WAVE CHARACTERISTICS - GENERAL"
   WaveChar=Default   WaveType="From Theory"   KinFactor=1   SWaterDepth=45   WaveHeight=18   WavePeriod=12   WaveTheory=Linear
 
TABLE:  "CASE - MODAL 1 - GENERAL"
   Case=MODAL   ModeType=Eigen   MaxNumModes=12   MinNumModes=1   EigenShift=0   EigenCutoff=0   EigenTol=1E-09   AutoShift=Yes
 
TABLE:  "CASE - STATIC 1 - LOAD ASSIGNMENTS"
   Case=DEAD   LoadType="Load pattern"   LoadName=DEAD   LoadSF=1
   Case=LL   LoadType="Load pattern"   LoadName=LL   LoadSF=1
 
TABLE:  "COMBINATION DEFINITIONS"
   ComboName=COMB1   ComboType="Linear Add"   AutoDesign=No   CaseName=DEAD   ScaleFactor=1   SteelDesign=None   ConcDesign=Strength   AlumDesign=None   ColdDesign=None
   ComboName=COMB2   ComboType="Linear Add"   AutoDesign=No   CaseName=DEAD   ScaleFactor=1   SteelDesign=None   ConcDesign=Strength   AlumDesign=None   ColdDesign=None
   ComboName=COMB2   CaseName=LL   ScaleFactor=1
   ComboName=BAO   ComboType=Envelope   AutoDesign=No   CaseName=COMB1   ScaleFactor=1   SteelDesign=None   ConcDesign=Strength   AlumDesign=None   ColdDesign=None
   ComboName=BAO   CaseName=COMB2   ScaleFactor=1
   ComboName=DCON1   ComboType="Linear Add"   AutoDesign=Yes   CaseName=DEAD   ScaleFactor=1.4   SteelDesign=None   ConcDesign=Strength   AlumDesign=None   ColdDesign=None   GUID=bb4fff9a-98b5-44d1-9fde-34d92700a8e9   Notes="Dead Only; Strength"
   ComboName=DCON2   ComboType="Linear Add"   AutoDesign=Yes   CaseName=DEAD   ScaleFactor=1.25   SteelDesign=None   ConcDesign=Strength   AlumDesign=None   ColdDesign=None   GUID=505bcda7-6fac-4dd0-b03e-c591d1ffc6ce   Notes="Dead + Live; Strength"
   ComboName=DCON2   CaseName=LL   ScaleFactor=1.5
 
TABLE:  "CONNECTIVITY - AREA"
   Area=328663   Joint1=961249   Joint2=961178   Joint3=961137   Joint4=961136   GUID=b8a73196-b4d0-4194-ad7b-2c12ed16b958
   Area=328664   Joint1=961136   Joint2=961137   Joint3=961139   Joint4=961138   GUID=1adb07a2-98fa-4bea-ba7e-0a86def05e5d
   Area=328665   Joint1=961138   Joint2=961139   Joint3=961141   Joint4=961140   GUID=b275ec9a-0cfe-4941-8826-a065de16ad51
   Area=328666   Joint1=961140   Joint2=961141   Joint3=961143   Joint4=961142   GUID=f9b3efd7-9226-4fff-9758-926b668a09c9
   Area=328667   Joint1=961142   Joint2=961143   Joint3=961145   Joint4=961144   GUID=7b06b643-8cd6-455b-bdf1-ff9afb72ff2c
   Area=328668   Joint1=961144   Joint2=961145   Joint3=961147   Joint4=961146   GUID=c57cb84e-a7fd-4b22-b0ad-15ef89459225
   Area=328669   Joint1=961146   Joint2=961147   Joint3=961149   Joint4=961148   GUID=febef181-692b-40e8-a889-5e769c7386d7
   Area=328670   Joint1=961148   Joint2=961149   Joint3=961182   Joint4=961250   GUID=441b5b48-a307-4035-815d-e2a77e574043
   Area=328671   Joint1=961178   Joint2=961179   Joint3=961150   Joint4=961137   GUID=f2497184-6dca-4647-8110-c5f9174c2203
   Area=328672   Joint1=961137   Joint2=961150   Joint3=961151   Joint4=961139   GUID=96ad1d60-45a3-4d65-9560-b7bc7a04cf2a
   Area=328673   Joint1=961139   Joint2=961151   Joint3=961152   Joint4=961141   GUID=239673f3-aecb-48c0-a2d1-89ff98b4b065
   Area=328674   Joint1=961141   Joint2=961152   Joint3=961153   Joint4=961143   GUID=742c60df-3d95-4c84-bd4e-9316792fe789
   Area=328675   Joint1=961143   Joint2=961153   Joint3=961154   Joint4=961145   GUID=5cdcc35f-1070-431f-8ef1-019014e09ce4
   Area=328676   Joint1=961145   Joint2=961154   Joint3=961155   Joint4=961147   GUID=e1460202-48a9-4023-acad-b2fabb5a2872
   Area=328677   Joint1=961147   Joint2=961155   Joint3=961156   Joint4=961149   GUID=9cb77fa6-025d-4f8d-beb6-edfa91d72a97
   Area=328678   Joint1=961149   Joint2=961156   Joint3=961183   Joint4=961182   GUID=d40f9c9a-6b3b-4eee-b510-11bcfc32aa32
   Area=328679   Joint1=961179   Joint2=961180   Joint3=961157   Joint4=961150   GUID=421c4649-5de5-4d37-af91-38c0936a4e5f
   Area=328680   Joint1=961150   Joint2=961157   Joint3=961158   Joint4=961151   GUID=4cd259d6-bd02-4f70-bc1f-d789afdb96ac
   Area=328681   Joint1=961151   Joint2=961158   Joint3=961159   Joint4=961152   GUID=314deb60-9ac9-4816-9322-63b1585027ed
   Area=328682   Joint1=961152   Joint2=961159   Joint3=961160   Joint4=961153   GUID=9d2f8cfc-c63b-4a4d-90f5-51082af7d83f
   Area=328683   Joint1=961153   Joint2=961160   Joint3=961161   Joint4=961154   GUID=62cb9b29-849e-4746-9de8-45d7d55a1f54
   Area=328684   Joint1=961154   Joint2=961161   Joint3=961162   Joint4=961155   GUID=a0f88d99-9a43-4d9d-a82f-d4ac08a78cba
   Area=328685   Joint1=961155   Joint2=961162   Joint3=961163   Joint4=961156   GUID=d0816f77-719d-454d-bb79-236b882384a6
   Area=328686   Joint1=961156   Joint2=961163   Joint3=961184   Joint4=961183   GUID=271b193e-8c10-4999-b6a1-9670ea63c3fd
   Area=328687   Joint1=961180   Joint2=961181   Joint3=961164   Joint4=961157   GUID=0cb1a3df-d122-4fba-987b-2a4cead7fbb1
   Area=328688   Joint1=961157   Joint2=961164   Joint3=961165   Joint4=961158   GUID=b661f4e6-e21a-4358-8706-a23eadccac03
   Area=328689   Joint1=961158   Joint2=961165   Joint3=961166   Joint4=961159   GUID=87eb59df-9a7c-4be6-af62-b2f7ab2f0a99
   Area=328690   Joint1=961159   Joint2=961166   Joint3=961167   Joint4=961160   GUID=12f1dd01-8cc9-4855-9921-182dacf1c42a
   Area=328691   Joint1=961160   Joint2=961167   Joint3=961168   Joint4=961161   GUID=9f1d3c7f-2e45-4278-b4af-218abbfd7001
   Area=328692   Joint1=961161   Joint2=961168   Joint3=961169   Joint4=961162   GUID=57b7f65f-e81a-4302-a2f7-7eafdaff076a
   Area=328693   Joint1=961162   Joint2=961169   Joint3=961170   Joint4=961163   GUID=5f037e02-a8ab-40ca-9119-d04dab0fa28c
   Area=328694   Joint1=961163   Joint2=961170   Joint3=961185   Joint4=961184   GUID=8c3be12c-2405-4cdf-9166-cd80dcd7e1b9
   Area=328695   Joint1=961181   Joint2=961251   Joint3=961171   Joint4=961164   GUID=bea8aa72-7771-42f2-a2d1-3b14f9fd3a9c
   Area=328696   Joint1=961164   Joint2=961171   Joint3=961172   Joint4=961165   GUID=d904f20a-2ccf-4714-9bf5-a64264b0c592
   Area=328697   Joint1=961165   Joint2=961172   Joint3=961173   Joint4=961166   GUID=e87aef8c-6f5d-4d06-9e2e-110e7322c15a
   Area=328698   Joint1=961166   Joint2=961173   Joint3=961174   Joint4=961167   GUID=6cf71776-0099-49e3-85b3-1a24d748bb94
   Area=328699   Joint1=961167   Joint2=961174   Joint3=961175   Joint4=961168   GUID=9134ee73-90ab-4647-8697-49544c55821a
   Area=328700   Joint1=961168   Joint2=961175   Joint3=961176   Joint4=961169   GUID=7074d15a-3f2d-4748-9d2b-e889fc7acfc4
   Area=328701   Joint1=961169   Joint2=961176   Joint3=961177   Joint4=961170   GUID=50723b70-e9f1-4b20-b211-18f1ae36647e
   Area=328702   Joint1=961170   Joint2=961177   Joint3=961252   Joint4=961185   GUID=075189b2-27a5-4030-89ea-8c675244331b
 
TABLE:  "CONNECTIVITY - FRAME"
   Frame=1115070   JointI=961136   JointJ=961137   IsCurved=No   GUID=5328979a-b10f-4739-beb2-fa8827cd953c
   Frame=1115071   JointI=961138   JointJ=961139   IsCurved=No   GUID=9142004b-3dd5-4bb2-b73f-c708a95c7ebc
   Frame=1115072   JointI=961140   JointJ=961141   IsCurved=No   GUID=0ae6cfa7-99c6-4ed4-a850-cdd9acc94871
   Frame=1115073   JointI=961142   JointJ=961143   IsCurved=No   GUID=ad03c5e0-bfbb-4557-8c2f-fd13e499d8c4
   Frame=1115074   JointI=961144   JointJ=961145   IsCurved=No   GUID=d41bdab3-a40e-4cd3-b732-9d9f7cd542f3
   Frame=1115075   JointI=961146   JointJ=961147   IsCurved=No   GUID=b4dbe8f6-4658-4070-b376-0c6137f57e88
   Frame=1115076   JointI=961148   JointJ=961149   IsCurved=No   GUID=3fd74f20-36d6-452f-9b83-e3d8412906e0
   Frame=1115077   JointI=961137   JointJ=961150   IsCurved=No   GUID=cf096962-3f5d-4e16-a6fe-f618ab639f2d
   Frame=1115078   JointI=961139   JointJ=961151   IsCurved=No   GUID=a2926334-f4b7-4313-a518-e2ad222e5a60
   Frame=1115079   JointI=961141   JointJ=961152   IsCurved=No   GUID=83efc575-d70d-46b5-b067-4bde092404e7
   Frame=1115080   JointI=961143   JointJ=961153   IsCurved=No   GUID=491eac8b-c5da-4284-b4a6-8a1eb771647e
   Frame=1115081   JointI=961145   JointJ=961154   IsCurved=No   GUID=bb782a7c-ae22-45fd-88bd-dfde3e55a9f2
   Frame=1115082   JointI=961147   JointJ=961155   IsCurved=No   GUID=6adc081e-383b-4bd2-8366-9d9ec6a06608
   Frame=1115083   JointI=961149   JointJ=961156   IsCurved=No   GUID=b822672a-ed9b-4c8b-b0cc-05c1620a791c
   Frame=1115084   JointI=961150   JointJ=961157   IsCurved=No   GUID=b85d81a7-2e75-49e9-baf8-a12ff9568697
   Frame=1115085   JointI=961151   JointJ=961158   IsCurved=No   GUID=8d86655b-bf24-4f48-8568-13fa9933cf54
   Frame=1115086   JointI=961152   JointJ=961159   IsCurved=No   GUID=7965bd4d-41a5-4ed7-a00e-4793c464f938
   Frame=1115087   JointI=961153   JointJ=961160   IsCurved=No   GUID=96db0a68-f7e2-496c-b1b7-4ede95c50acc
   Frame=1115088   JointI=961154   JointJ=961161   IsCurved=No   GUID=139c867f-66b2-472b-aee3-12963f07ed26
   Frame=1115089   JointI=961155   JointJ=961162   IsCurved=No   GUID=5a1b2508-5f12-45b5-b27b-857d5cfb2adc
   Frame=1115090   JointI=961156   JointJ=961163   IsCurved=No   GUID=71edf056-1c45-48ed-b5c1-e40898777467
   Frame=1115091   JointI=961157   JointJ=961164   IsCurved=No   GUID=d0ccdcf1-01fc-4655-b1f7-845ffbb4dc29
   Frame=1115092   JointI=961158   JointJ=961165   IsCurved=No   GUID=e2a949ff-4407-417c-b588-3ec1f7b52c39
   Frame=1115093   JointI=961159   JointJ=961166   IsCurved=No   GUID=9b4f6b20-a02a-4b8c-83b7-8731abb164d1
   Frame=1115094   JointI=961160   JointJ=961167   IsCurved=No   GUID=03799f32-8c75-412d-8a9d-b6d137317f51
   Frame=1115095   JointI=961161   JointJ=961168   IsCurved=No   GUID=a66e8c19-a54b-4741-9c55-12d0342c33c9
   Frame=1115096   JointI=961162   JointJ=961169   IsCurved=No   GUID=a53474fa-eb76-49c9-a7b5-393589e39412
   Frame=1115097   JointI=961163   JointJ=961170   IsCurved=No   GUID=1e7fe8dc-86c2-4c97-b044-bafbc6e40e02
   Frame=1115098   JointI=961164   JointJ=961171   IsCurved=No   GUID=b114f58c-0f35-4c93-b89f-926863e50f4e
   Frame=1115099   JointI=961165   JointJ=961172   IsCurved=No   GUID=ad904c27-c4ad-4491-8209-ff31b8a69811
   Frame=1115100   JointI=961166   JointJ=961173   IsCurved=No   GUID=79c825e8-3ffb-4339-ad81-4b51a0993d58
   Frame=1115101   JointI=961167   JointJ=961174   IsCurved=No   GUID=416efaf4-a8e0-4b70-8264-3dc1e3a79101
   Frame=1115102   JointI=961168   JointJ=961175   IsCurved=No   GUID=bd2e74e3-69fe-4acf-bc4f-a27fd998a4da
   Frame=1115103   JointI=961169   JointJ=961176   IsCurved=No   GUID=be1d46f5-7da4-48de-9e96-9a51da1def99
   Frame=1115104   JointI=961170   JointJ=961177   IsCurved=No   GUID=01d81dc7-2bf6-451d-a395-dae61e935961
   Frame=1115105   JointI=961178   JointJ=961137   IsCurved=No   GUID=ec3b17ab-2497-41f5-bd40-539ddb279255
   Frame=1115106   JointI=961179   JointJ=961150   IsCurved=No   GUID=39d8c4b7-798d-4c4f-b9c8-5fb8429f71f7
   Frame=1115107   JointI=961180   JointJ=961157   IsCurved=No   GUID=7015348a-b168-4af1-a11b-622d43b347b9
   Frame=1115108   JointI=961181   JointJ=961164   IsCurved=No   GUID=058dfa88-fbf0-4a5c-833e-b548d9d22d78
   Frame=1115109   JointI=961137   JointJ=961139   IsCurved=No   GUID=9fef32db-1f3b-4545-b341-e19c788661ca
   Frame=1115110   JointI=961150   JointJ=961151   IsCurved=No   GUID=74884188-cc7f-462d-a4a4-e13210b29ee8
   Frame=1115111   JointI=961157   JointJ=961158   IsCurved=No   GUID=9569bd22-87de-4249-94f1-979aa11b37d8
   Frame=1115112   JointI=961164   JointJ=961165   IsCurved=No   GUID=04df8760-54c0-47f6-ab9b-22691ec08f97
   Frame=1115113   JointI=961139   JointJ=961141   IsCurved=No   GUID=aafa358c-3eb1-44da-a0d3-3ca8ffdd6975
   Frame=1115114   JointI=961151   JointJ=961152   IsCurved=No   GUID=a0ca0fca-d8b6-4dfb-8e89-d0faea977267
   Frame=1115115   JointI=961158   JointJ=961159   IsCurved=No   GUID=b97ac2f6-8393-4e80-95a8-179708300be8
   Frame=1115116   JointI=961165   JointJ=961166   IsCurved=No   GUID=6bc088c1-2087-4689-96e9-5138404af2aa
   Frame=1115117   JointI=961141   JointJ=961143   IsCurved=No   GUID=221cbe85-1e69-4010-a2c1-793fbecd3213
   Frame=1115118   JointI=961152   JointJ=961153   IsCurved=No   GUID=30750342-020d-4f27-9de4-a517c2f41181
   Frame=1115119   JointI=961159   JointJ=961160   IsCurved=No   GUID=bbc6c0f5-0bbe-43cc-8738-2b161aa2c306
   Frame=1115120   JointI=961166   JointJ=961167   IsCurved=No   GUID=3be90088-03e0-4adf-ace7-789de3bea78a
   Frame=1115121   JointI=961143   JointJ=961145   IsCurved=No   GUID=c8140d03-faec-41fe-92b5-f04ffa1be140
   Frame=1115122   JointI=961153   JointJ=961154   IsCurved=No   GUID=46f77baf-bbdf-403f-852e-b3c6771b2cf2
   Frame=1115123   JointI=961160   JointJ=961161   IsCurved=No   GUID=c2173173-a57a-4782-b999-2877f3bb77fb
   Frame=1115124   JointI=961167   JointJ=961168   IsCurved=No   GUID=1ca180e8-e211-4e8b-9d47-656844df0663
   Frame=1115125   JointI=961145   JointJ=961147   IsCurved=No   GUID=c732c0d1-4eac-4da5-92c2-ce5007a5be36
   Frame=1115126   JointI=961154   JointJ=961155   IsCurved=No   GUID=e6c7f4ee-941b-426f-bd52-ce78ee7a5749
   Frame=1115127   JointI=961161   JointJ=961162   IsCurved=No   GUID=9e232c94-96de-4309-b543-79c778019a58
   Frame=1115128   JointI=961168   JointJ=961169   IsCurved=No   GUID=d0b5220f-954f-4910-8ce4-6c5ce1c8b958
   Frame=1115129   JointI=961147   JointJ=961149   IsCurved=No   GUID=9fd05f1e-0285-42f9-aa9b-fdc335072511
   Frame=1115130   JointI=961155   JointJ=961156   IsCurved=No   GUID=1e2aa45b-9b3c-4f07-add7-866c2bfd8163
   Frame=1115131   JointI=961162   JointJ=961163   IsCurved=No   GUID=26fea945-a933-4a35-8fb2-ea835b780de4
   Frame=1115132   JointI=961169   JointJ=961170   IsCurved=No   GUID=d15814b5-21b9-4ad4-9ac4-de35ec9ffb7e
   Frame=1115133   JointI=961149   JointJ=961182   IsCurved=No   GUID=a626882e-a8f3-4f02-8ef2-8ac23a0d813d
   Frame=1115134   JointI=961156   JointJ=961183   IsCurved=No   GUID=97b986ce-cbd0-4dff-9183-f52f3d6605d3
   Frame=1115135   JointI=961163   JointJ=961184   IsCurved=No   GUID=c80dc426-40c6-44cd-b497-5a1f2b3ff984
   Frame=1115136   JointI=961170   JointJ=961185   IsCurved=No   GUID=196b2513-dfd9-4343-a670-e0133c5c36db
   Frame=1115137   JointI=961137   JointJ=961186   IsCurved=No   GUID=90940712-d867-42d1-ae64-a0c73b1bce37
   Frame=1115138   JointI=961186   JointJ=961187   IsCurved=No   GUID=92a35612-7267-4533-99d1-d66b28483611
   Frame=1115139   JointI=961187   JointJ=961188   IsCurved=No   GUID=86b95382-ebfa-4235-91ae-107dec734756
   Frame=1115140   JointI=961139   JointJ=961189   IsCurved=No   GUID=e47477fd-5acc-473d-a063-fb282a7689a6
   Frame=1115141   JointI=961189   JointJ=961190   IsCurved=No   GUID=29a45db8-345a-4466-811d-a54d1e97faa2
   Frame=1115142   JointI=961190   JointJ=961191   IsCurved=No   GUID=98772bd6-16b0-4e7a-8844-1c4834012b62
   Frame=1115143   JointI=961141   JointJ=961192   IsCurved=No   GUID=d7e6da8b-3ecc-414c-9199-e721b1f96867
   Frame=1115144   JointI=961192   JointJ=961193   IsCurved=No   GUID=a0fc0077-1c57-4991-bbdd-ca168a0f35b6
   Frame=1115145   JointI=961193   JointJ=961194   IsCurved=No   GUID=acb1aa42-bc29-4e2b-991f-782d2a9afa08
   Frame=1115146   JointI=961143   JointJ=961195   IsCurved=No   GUID=a7829685-8ad4-4d8c-a4ae-197a7f556b75
   Frame=1115147   JointI=961195   JointJ=961196   IsCurved=No   GUID=b221b5d7-256f-48f0-9676-3ebbb619116c
   Frame=1115148   JointI=961196   JointJ=961197   IsCurved=No   GUID=4aee9cbb-a32b-4b86-9b11-dc17931b26a9
   Frame=1115149   JointI=961145   JointJ=961198   IsCurved=No   GUID=5805ac4e-9576-4bfc-b3cc-d70cdf133139
   Frame=1115150   JointI=961198   JointJ=961199   IsCurved=No   GUID=2259abdb-9c5f-43c9-977d-6121351a5aa5
   Frame=1115151   JointI=961199   JointJ=961200   IsCurved=No   GUID=37de1259-3765-4676-a592-2d329f5c49ef
   Frame=1115152   JointI=961147   JointJ=961201   IsCurved=No   GUID=0a25ba80-a1ee-4377-a545-ea7d3e64d075
   Frame=1115153   JointI=961201   JointJ=961202   IsCurved=No   GUID=83f91770-970a-4ae2-a6e1-fbd68caaf933
   Frame=1115154   JointI=961202   JointJ=961203   IsCurved=No   GUID=f441258d-1f5d-4382-8f65-fc97298148c8
   Frame=1115155   JointI=961149   JointJ=961204   IsCurved=No   GUID=813a0283-4d4c-4035-837a-1e9cf9913494
   Frame=1115156   JointI=961204   JointJ=961205   IsCurved=No   GUID=a7e2b9e0-de12-4893-8016-44ac8ab4338d
   Frame=1115157   JointI=961205   JointJ=961206   IsCurved=No   GUID=a1d0285f-9ba2-4726-80f5-c49b5233eea4
   Frame=1115158   JointI=961150   JointJ=961207   IsCurved=No   GUID=a1c16341-25e4-4757-9832-e5059045dd9a
   Frame=1115159   JointI=961207   JointJ=961208   IsCurved=No   GUID=72c2c4e5-9a6e-41e4-bd1c-b8bca241b909
   Frame=1115160   JointI=961151   JointJ=961209   IsCurved=No   GUID=c79dd73b-355d-401a-a450-06cf37e9aa9a
   Frame=1115161   JointI=961209   JointJ=961210   IsCurved=No   GUID=fb7ceee4-0da4-466c-84c6-1e86d0ae420e
   Frame=1115162   JointI=961152   JointJ=961211   IsCurved=No   GUID=2e091663-b8d3-4612-860a-666391692d2c
   Frame=1115163   JointI=961211   JointJ=961212   IsCurved=No   GUID=df0ee614-0b01-46bf-a17b-0be781e05220
   Frame=1115164   JointI=961153   JointJ=961213   IsCurved=No   GUID=ede106d2-c46f-4f5e-9aac-33fc60468deb
   Frame=1115165   JointI=961213   JointJ=961214   IsCurved=No   GUID=7fe547ca-dc4c-4fc7-b76a-9082fcffed84
   Frame=1115166   JointI=961154   JointJ=961215   IsCurved=No   GUID=43eacce9-a8cf-43cc-9644-54456c4ea764
   Frame=1115167   JointI=961215   JointJ=961216   IsCurved=No   GUID=752d383a-e8a8-4b03-909e-b79bb9af98c4
   Frame=1115168   JointI=961155   JointJ=961217   IsCurved=No   GUID=1f721d7d-c81c-497e-88fc-0819ed602a4b
   Frame=1115169   JointI=961217   JointJ=961218   IsCurved=No   GUID=66eb06a9-ee40-4f3d-8dc1-be39cc878eee
   Frame=1115170   JointI=961156   JointJ=961219   IsCurved=No   GUID=aa3477fb-c13e-4cba-a261-d92f12acae83
   Frame=1115171   JointI=961219   JointJ=961220   IsCurved=No   GUID=575aa064-4034-4957-beb2-a62a6dfdddff
   Frame=1115172   JointI=961157   JointJ=961221   IsCurved=No   GUID=7532925f-1785-4528-965c-62c78504ec68
   Frame=1115173   JointI=961221   JointJ=961222   IsCurved=No   GUID=8922c07b-c199-4670-9dde-3ef6e7fb5777
   Frame=1115174   JointI=961158   JointJ=961223   IsCurved=No   GUID=da493653-ba97-4ac3-96cc-60e81916fd68
   Frame=1115175   JointI=961223   JointJ=961224   IsCurved=No   GUID=2a17b8b0-c080-4866-b938-059a376f899e
   Frame=1115176   JointI=961159   JointJ=961225   IsCurved=No   GUID=f9ecb502-1948-423f-8571-d7beaf8432a1
   Frame=1115177   JointI=961225   JointJ=961226   IsCurved=No   GUID=9180c515-a219-48e7-9ada-2c494d2da860
   Frame=1115178   JointI=961160   JointJ=961227   IsCurved=No   GUID=b74448d5-72fe-499a-ad2a-3aa1c055fcbb
   Frame=1115179   JointI=961227   JointJ=961228   IsCurved=No   GUID=879afb76-c146-4c6a-9f93-54025e9cbfe7
   Frame=1115180   JointI=961161   JointJ=961229   IsCurved=No   GUID=f1c64590-5f2e-4a78-998c-9c39e1069070
   Frame=1115181   JointI=961229   JointJ=961230   IsCurved=No   GUID=a26b55fc-0605-4d88-a74b-2e0675487871
   Frame=1115182   JointI=961162   JointJ=961231   IsCurved=No   GUID=8df451f9-d7e3-47e3-bbc5-0d9b21be5e89
   Frame=1115183   JointI=961231   JointJ=961232   IsCurved=No   GUID=e8b8483f-3f14-42e9-86fe-34bb97b904ed
   Frame=1115184   JointI=961163   JointJ=961233   IsCurved=No   GUID=719fabc0-1910-4dbc-8b5f-b698492aa199
   Frame=1115185   JointI=961233   JointJ=961234   IsCurved=No   GUID=a662f626-c68a-4664-8049-4bdab2b84e24
   Frame=1115186   JointI=961164   JointJ=961235   IsCurved=No   GUID=477c3df1-ce8c-4223-b5d3-d77b9a084c2d
   Frame=1115187   JointI=961235   JointJ=961236   IsCurved=No   GUID=54a0b8d8-d035-457a-bbc6-bf9e06a68569
   Frame=1115188   JointI=961165   JointJ=961237   IsCurved=No   GUID=c0c2157b-3a2a-4fe3-80df-9e7d1388da7d
   Frame=1115189   JointI=961237   JointJ=961238   IsCurved=No   GUID=28bd03f3-86f9-493f-890b-1908d44e5b8c
   Frame=1115190   JointI=961166   JointJ=961239   IsCurved=No   GUID=e01f9558-ff70-42f7-a254-9b6553fba638
   Frame=1115191   JointI=961239   JointJ=961240   IsCurved=No   GUID=8c2cfa62-cf6c-4be2-8b7e-e0f8ca560711
   Frame=1115192   JointI=961167   JointJ=961241   IsCurved=No   GUID=aaee5705-f612-46e6-b8ec-3e682a87a881
   Frame=1115193   JointI=961241   JointJ=961242   IsCurved=No   GUID=6a709f07-4334-418e-89e0-3d18b3915fad
   Frame=1115194   JointI=961168   JointJ=961243   IsCurved=No   GUID=77401563-4be5-44e5-a9db-bd20670b31fd
   Frame=1115195   JointI=961243   JointJ=961244   IsCurved=No   GUID=57044938-0841-4e3d-b3a7-a3acc4dc9704
   Frame=1115196   JointI=961169   JointJ=961245   IsCurved=No   GUID=49c8ad0b-84eb-42ac-98fa-670df7b780c8
   Frame=1115197   JointI=961245   JointJ=961246   IsCurved=No   GUID=0f495577-8dc1-4615-8ca2-a402928456ae
   Frame=1115198   JointI=961170   JointJ=961247   IsCurved=No   GUID=977ab42a-6a27-42b4-9bb0-a78617be6439
   Frame=1115199   JointI=961247   JointJ=961248   IsCurved=No   GUID=3f3fb537-65ab-4dc7-9ac0-0621f3ae06ff
   Frame=1115200   JointI=961186   JointJ=961189   IsCurved=No   GUID=848e80ce-92d3-43c9-9c96-37ff1b60c13b
   Frame=1115201   JointI=961189   JointJ=961192   IsCurved=No   GUID=59823cee-ecbe-4ea5-8868-a1468a176703
   Frame=1115202   JointI=961192   JointJ=961195   IsCurved=No   GUID=641fcd21-4733-4836-807f-42341ed96017
   Frame=1115203   JointI=961195   JointJ=961198   IsCurved=No   GUID=464ddf2a-78ff-4296-b52b-7b4e72569e06
   Frame=1115204   JointI=961198   JointJ=961201   IsCurved=No   GUID=ad5c725d-140d-4f73-94f7-a8fce299208d
   Frame=1115205   JointI=961201   JointJ=961204   IsCurved=No   GUID=8169bfd0-5421-48a6-a97b-3e929d0a5646
 
TABLE:  "COORDINATE SYSTEMS"
   Name=GLOBAL   Type=Cartesian   X=0   Y=0   Z=0   AboutZ=0   AboutY=0   AboutX=0
 
TABLE:  "DATABASE DOCUMENTATION"
 
TABLE:  "DATABASE FORMAT TYPES"
   UnitsCurr=Yes   OverrideE=No
 
TABLE:  "FRAME AUTO MESH ASSIGNMENTS"
   Frame=1115070   AutoMesh=Yes   AtJoints=Yes   AtFrames=No   NumSegments=0   MaxLength=0   MaxDegrees=0
   Frame=1115071   AutoMesh=Yes   AtJoints=Yes   AtFrames=No   NumSegments=0   MaxLength=0   MaxDegrees=0
   Frame=1115072   AutoMesh=Yes   AtJoints=Yes   AtFrames=No   NumSegments=0   MaxLength=0   MaxDegrees=0
   Frame=1115073   AutoMesh=Yes   AtJoints=Yes   AtFrames=No   NumSegments=0   MaxLength=0   MaxDegrees=0
   Frame=1115074   AutoMesh=Yes   AtJoints=Yes   AtFrames=No   NumSegments=0   MaxLength=0   MaxDegrees=0
   Frame=1115075   AutoMesh=Yes   AtJoints=Yes   AtFrames=No   NumSegments=0   MaxLength=0   MaxDegrees=0
   Frame=1115076   AutoMesh=Yes   AtJoints=Yes   AtFrames=No   NumSegments=0   MaxLength=0   MaxDegrees=0
   Frame=1115077   AutoMesh=Yes   AtJoints=Yes   AtFrames=No   NumSegments=0   MaxLength=0   MaxDegrees=0
   Frame=1115078   AutoMesh=Yes   AtJoints=Yes   AtFrames=No   NumSegments=0   MaxLength=0   MaxDegrees=0
   Frame=1115079   AutoMesh=Yes   AtJoints=Yes   AtFrames=No   NumSegments=0   MaxLength=0   MaxDegrees=0
   Frame=1115080   AutoMesh=Yes   AtJoints=Yes   AtFrames=No   NumSegments=0   MaxLength=0   MaxDegrees=0
   Frame=1115081   AutoMesh=Yes   AtJoints=Yes   AtFrames=No   NumSegments=0   MaxLength=0   MaxDegrees=0
   Frame=1115082   AutoMesh=Yes   AtJoints=Yes   AtFrames=No   NumSegments=0   MaxLength=0   MaxDegrees=0
   Frame=1115083   AutoMesh=Yes   AtJoints=Yes   AtFrames=No   NumSegments=0   MaxLength=0   MaxDegrees=0
   Frame=1115084   AutoMesh=Yes   AtJoints=Yes   AtFrames=No   NumSegments=0   MaxLength=0   MaxDegrees=0
   Frame=1115085   AutoMesh=Yes   AtJoints=Yes   AtFrames=No   NumSegments=0   MaxLength=0   MaxDegrees=0
   Frame=1115086   AutoMesh=Yes   AtJoints=Yes   AtFrames=No   NumSegments=0   MaxLength=0   MaxDegrees=0
   Frame=1115087   AutoMesh=Yes   AtJoints=Yes   AtFrames=No   NumSegments=0   MaxLength=0   MaxDegrees=0
   Frame=1115088   AutoMesh=Yes   AtJoints=Yes   AtFrames=No   NumSegments=0   MaxLength=0   MaxDegrees=0
   Frame=1115089   AutoMesh=Yes   AtJoints=Yes   AtFrames=No   NumSegments=0   MaxLength=0   MaxDegrees=0
# ... 116 like lines cut
 
TABLE:  "FRAME DESIGN PROCEDURES"
   Frame=1115070   DesignProc="From Material"
   Frame=1115071   DesignProc="From Material"
   Frame=1115072   DesignProc="From Material"
   Frame=1115073   DesignProc="From Material"
   Frame=1115074   DesignProc="From Material"
   Frame=1115075   DesignProc="From Material"
   Frame=1115076   DesignProc="From Material"
   Frame=1115077   DesignProc="From Material"
   Frame=1115078   DesignProc="From Material"
   Frame=1115079   DesignProc="From Material"
   Frame=1115080   DesignProc="From Material"
   Frame=1115081   DesignProc="From Material"
   Frame=1115082   DesignProc="From Material"
   Frame=1115083   DesignProc="From Material"
   Frame=1115084   DesignProc="From Material"
   Frame=1115085   DesignProc="From Material"
   Frame=1115086   DesignProc="From Material"
   Frame=1115087   DesignProc="From Material"
   Frame=1115088   DesignProc="From Material"
   Frame=1115089   DesignProc="From Material"
# ... 48 like lines cut
   Frame=1115138   DesignProc="No Design"
   Frame=1115139   DesignProc="No Design"
   Frame=1115140   DesignProc="From Material"
   Frame=1115141   DesignProc="No Design"
   Frame=1115142   DesignProc="No Design"
   Frame=1115143   DesignProc="From Material"
   Frame=1115144   DesignProc="No Design"
   Frame=1115145   DesignProc="No Design"
   Frame=1115146   DesignProc="From Material"
   Frame=1115147   DesignProc="No Design"
   Frame=1115148   DesignProc="No Design"
   Frame=1115149   DesignProc="From Material"
   Frame=1115150   DesignProc="No Design"
   Frame=1115151   DesignProc="No Design"
   Frame=1115152   DesignProc="From Material"
   Frame=1115153   DesignProc="No Design"
   Frame=1115154   DesignProc="No Design"
   Frame=1115155   DesignProc="From Material"
   Frame=1115156   DesignProc="No Design"
   Frame=1115157   DesignProc="No Design"
   Frame=1115158   DesignProc="No Design"
   Frame=1115159   DesignProc="No Design"
   Frame=1115160   DesignProc="No Design"
   Frame=1115161   DesignProc="No Design"
   Frame=1115162   DesignProc="No Design"
   Frame=1115163   DesignProc="No Design"
   Frame=1115164   DesignProc="No Design"
   Frame=1115165   DesignProc="No Design"
   Frame=1115166   DesignProc="No Design"
   Frame=1115167   DesignProc="No Design"
   Frame=1115168   DesignProc="No Design"
   Frame=1115169   DesignProc="No Design"
   Frame=1115170   DesignProc="No Design"
   Frame=1115171   DesignProc="No Design"
   Frame=1115172   DesignProc="No Design"
   Frame=1115173   DesignProc="No Design"
   Frame=1115174   DesignProc="No Design"
   Frame=1115175   DesignProc="No Design"
# ... 24 like lines cut
   Frame=1115200   DesignProc="From Material"
   Frame=1115201   DesignProc="From Material"
   Frame=1115202   DesignProc="From Material"
   Frame=1115203   DesignProc="From Material"
   Frame=1115204   DesignProc="From Material"
   Frame=1115205   DesignProc="From Material"
 
TABLE:  "FRAME LOAD TRANSFER OPTIONS"
   Frame=1115070   Transfer=Yes
   Frame=1115071   Transfer=Yes
   Frame=1115072   Transfer=Yes
   Frame=1115073   Transfer=Yes
   Frame=1115074   Transfer=Yes
   Frame=1115075   Transfer=Yes
   Frame=1115076   Transfer=Yes
   Frame=1115077   Transfer=Yes
   Frame=1115078   Transfer=Yes
   Frame=1115079   Transfer=Yes
   Frame=1115080   Transfer=Yes
   Frame=1115081   Transfer=Yes
   Frame=1115082   Transfer=Yes
   Frame=1115083   Transfer=Yes
   Frame=1115084   Transfer=Yes
   Frame=1115085   Transfer=Yes
   Frame=1115086   Transfer=Yes
   Frame=1115087   Transfer=Yes
   Frame=1115088   Transfer=Yes
   Frame=1115089   Transfer=Yes
# ... 116 like lines cut
 
TABLE:  "FRAME LOCAL AXES ASSIGNMENTS 1 - TYPICAL"
   Frame=1115137   Angle=90
   Frame=1115140   Angle=90
   Frame=1115143   Angle=90
   Frame=1115146   Angle=90
   Frame=1115149   Angle=90
   Frame=1115152   Angle=90
   Frame=1115155   Angle=90
 
TABLE:  "FRAME OUTPUT STATION ASSIGNMENTS"
   Frame=1115070   StationType=MaxStaSpcg   MaxStaSpcg=0.5   AddAtElmInt=Yes   AddAtPtLoad=Yes
   Frame=1115071   StationType=MaxStaSpcg   MaxStaSpcg=0.5   AddAtElmInt=Yes   AddAtPtLoad=Yes
   Frame=1115072   StationType=MaxStaSpcg   MaxStaSpcg=0.5   AddAtElmInt=Yes   AddAtPtLoad=Yes
   Frame=1115073   StationType=MaxStaSpcg   MaxStaSpcg=0.5   AddAtElmInt=Yes   AddAtPtLoad=Yes
   Frame=1115074   StationType=MaxStaSpcg   MaxStaSpcg=0.5   AddAtElmInt=Yes   AddAtPtLoad=Yes
   Frame=1115075   StationType=MaxStaSpcg   MaxStaSpcg=0.5   AddAtElmInt=Yes   AddAtPtLoad=Yes
   Frame=1115076   StationType=MaxStaSpcg   MaxStaSpcg=0.5   AddAtElmInt=Yes   AddAtPtLoad=Yes
   Frame=1115077   StationType=MaxStaSpcg   MaxStaSpcg=0.5   AddAtElmInt=Yes   AddAtPtLoad=Yes
   Frame=1115078   StationType=MaxStaSpcg   MaxStaSpcg=0.5   AddAtElmInt=Yes   AddAtPtLoad=Yes
   Frame=1115079   StationType=MaxStaSpcg   MaxStaSpcg=0.5   AddAtElmInt=Yes   AddAtPtLoad=Yes
   Frame=1115080   StationType=MaxStaSpcg   MaxStaSpcg=0.5   AddAtElmInt=Yes   AddAtPtLoad=Yes
   Frame=1115081   StationType=MaxStaSpcg   MaxStaSpcg=0.5   AddAtElmInt=Yes   AddAtPtLoad=Yes
   Frame=1115082   StationType=MaxStaSpcg   MaxStaSpcg=0.5   AddAtElmInt=Yes   AddAtPtLoad=Yes
   Frame=1115083   StationType=MaxStaSpcg   MaxStaSpcg=0.5   AddAtElmInt=Yes   AddAtPtLoad=Yes
   Frame=1115084   StationType=MaxStaSpcg   MaxStaSpcg=0.5   AddAtElmInt=Yes   AddAtPtLoad=Yes
   Frame=1115085   StationType=MaxStaSpcg   MaxStaSpcg=0.5   AddAtElmInt=Yes   AddAtPtLoad=Yes
   Frame=1115086   StationType=MaxStaSpcg   MaxStaSpcg=0.5   AddAtElmInt=Yes   AddAtPtLoad=Yes
   Frame=1115087   StationType=MaxStaSpcg   MaxStaSpcg=0.5   AddAtElmInt=Yes   AddAtPtLoad=Yes
   Frame=1115088   StationType=MaxStaSpcg   MaxStaSpcg=0.5   AddAtElmInt=Yes   AddAtPtLoad=Yes
   Frame=1115089   StationType=MaxStaSpcg   MaxStaSpcg=0.5   AddAtElmInt=Yes   AddAtPtLoad=Yes
# ... 47 like lines cut
   Frame=1115137   StationType=MinNumSta   MinNumSta=3   AddAtElmInt=Yes   AddAtPtLoad=Yes
   Frame=1115138   StationType=MinNumSta   MinNumSta=3   AddAtElmInt=Yes   AddAtPtLoad=Yes
   Frame=1115139   StationType=MinNumSta   MinNumSta=3   AddAtElmInt=Yes   AddAtPtLoad=Yes
   Frame=1115140   StationType=MinNumSta   MinNumSta=3   AddAtElmInt=Yes   AddAtPtLoad=Yes
   Frame=1115141   StationType=MinNumSta   MinNumSta=3   AddAtElmInt=Yes   AddAtPtLoad=Yes
   Frame=1115142   StationType=MinNumSta   MinNumSta=3   AddAtElmInt=Yes   AddAtPtLoad=Yes
   Frame=1115143   StationType=MinNumSta   MinNumSta=3   AddAtElmInt=Yes   AddAtPtLoad=Yes
   Frame=1115144   StationType=MinNumSta   MinNumSta=3   AddAtElmInt=Yes   AddAtPtLoad=Yes
   Frame=1115145   StationType=MinNumSta   MinNumSta=3   AddAtElmInt=Yes   AddAtPtLoad=Yes
   Frame=1115146   StationType=MinNumSta   MinNumSta=3   AddAtElmInt=Yes   AddAtPtLoad=Yes
   Frame=1115147   StationType=MinNumSta   MinNumSta=3   AddAtElmInt=Yes   AddAtPtLoad=Yes
   Frame=1115148   StationType=MinNumSta   MinNumSta=3   AddAtElmInt=Yes   AddAtPtLoad=Yes
   Frame=1115149   StationType=MinNumSta   MinNumSta=3   AddAtElmInt=Yes   AddAtPtLoad=Yes
   Frame=1115150   StationType=MinNumSta   MinNumSta=3   AddAtElmInt=Yes   AddAtPtLoad=Yes
   Frame=1115151   StationType=MinNumSta   MinNumSta=3   AddAtElmInt=Yes   AddAtPtLoad=Yes
   Frame=1115152   StationType=MinNumSta   MinNumSta=3   AddAtElmInt=Yes   AddAtPtLoad=Yes
   Frame=1115153   StationType=MinNumSta   MinNumSta=3   AddAtElmInt=Yes   AddAtPtLoad=Yes
   Frame=1115154   StationType=MinNumSta   MinNumSta=3   AddAtElmInt=Yes   AddAtPtLoad=Yes
   Frame=1115155   StationType=MinNumSta   MinNumSta=3   AddAtElmInt=Yes   AddAtPtLoad=Yes
   Frame=1115156   StationType=MinNumSta   MinNumSta=3   AddAtElmInt=Yes   AddAtPtLoad=Yes
# ... 43 like lines cut
   Frame=1115200   StationType=MaxStaSpcg   MaxStaSpcg=0.5   AddAtElmInt=Yes   AddAtPtLoad=Yes
   Frame=1115201   StationType=MaxStaSpcg   MaxStaSpcg=0.5   AddAtElmInt=Yes   AddAtPtLoad=Yes
   Frame=1115202   StationType=MaxStaSpcg   MaxStaSpcg=0.5   AddAtElmInt=Yes   AddAtPtLoad=Yes
   Frame=1115203   StationType=MaxStaSpcg   MaxStaSpcg=0.5   AddAtElmInt=Yes   AddAtPtLoad=Yes
   Frame=1115204   StationType=MaxStaSpcg   MaxStaSpcg=0.5   AddAtElmInt=Yes   AddAtPtLoad=Yes
   Frame=1115205   StationType=MaxStaSpcg   MaxStaSpcg=0.5   AddAtElmInt=Yes   AddAtPtLoad=Yes
 
TABLE:  "FRAME SECTION ASSIGNMENTS"
   Frame=1115070   AutoSelect=N.A.   AnalSect=TB   MatProp=Default
   Frame=1115071   AutoSelect=N.A.   AnalSect=TB   MatProp=Default
   Frame=1115072   AutoSelect=N.A.   AnalSect=TB   MatProp=Default
   Frame=1115073   AutoSelect=N.A.   AnalSect=TB   MatProp=Default
   Frame=1115074   AutoSelect=N.A.   AnalSect=TB   MatProp=Default
   Frame=1115075   AutoSelect=N.A.   AnalSect=TB   MatProp=Default
   Frame=1115076   AutoSelect=N.A.   AnalSect=TB   MatProp=Default
   Frame=1115077   AutoSelect=N.A.   AnalSect=TB   MatProp=Default
   Frame=1115078   AutoSelect=N.A.   AnalSect=TB   MatProp=Default
   Frame=1115079   AutoSelect=N.A.   AnalSect=TB   MatProp=Default
   Frame=1115080   AutoSelect=N.A.   AnalSect=TB   MatProp=Default
   Frame=1115081   AutoSelect=N.A.   AnalSect=TB   MatProp=Default
   Frame=1115082   AutoSelect=N.A.   AnalSect=TB   MatProp=Default
   Frame=1115083   AutoSelect=N.A.   AnalSect=TB   MatProp=Default
   Frame=1115084   AutoSelect=N.A.   AnalSect=TB   MatProp=Default
   Frame=1115085   AutoSelect=N.A.   AnalSect=TB   MatProp=Default
   Frame=1115086   AutoSelect=N.A.   AnalSect=TB   MatProp=Default
   Frame=1115087   AutoSelect=N.A.   AnalSect=TB   MatProp=Default
   Frame=1115088   AutoSelect=N.A.   AnalSect=TB   MatProp=Default
   Frame=1115089   AutoSelect=N.A.   AnalSect=TB   MatProp=Default
# ... 15 like lines cut
   Frame=1115105   AutoSelect=N.A.   AnalSect=LB   MatProp=Default
   Frame=1115106   AutoSelect=N.A.   AnalSect=LB   MatProp=Default
   Frame=1115107   AutoSelect=N.A.   AnalSect=LB   MatProp=Default
   Frame=1115108   AutoSelect=N.A.   AnalSect=LB   MatProp=Default
   Frame=1115109   AutoSelect=N.A.   AnalSect=LB   MatProp=Default
   Frame=1115110   AutoSelect=N.A.   AnalSect=LB   MatProp=Default
   Frame=1115111   AutoSelect=N.A.   AnalSect=LB   MatProp=Default
   Frame=1115112   AutoSelect=N.A.   AnalSect=LB   MatProp=Default
   Frame=1115113   AutoSelect=N.A.   AnalSect=LB   MatProp=Default
   Frame=1115114   AutoSelect=N.A.   AnalSect=LB   MatProp=Default
   Frame=1115115   AutoSelect=N.A.   AnalSect=LB   MatProp=Default
   Frame=1115116   AutoSelect=N.A.   AnalSect=LB   MatProp=Default
   Frame=1115117   AutoSelect=N.A.   AnalSect=LB   MatProp=Default
   Frame=1115118   AutoSelect=N.A.   AnalSect=LB   MatProp=Default
   Frame=1115119   AutoSelect=N.A.   AnalSect=LB   MatProp=Default
   Frame=1115120   AutoSelect=N.A.   AnalSect=LB   MatProp=Default
   Frame=1115121   AutoSelect=N.A.   AnalSect=LB   MatProp=Default
   Frame=1115122   AutoSelect=N.A.   AnalSect=LB   MatProp=Default
   Frame=1115123   AutoSelect=N.A.   AnalSect=LB   MatProp=Default
   Frame=1115124   AutoSelect=N.A.   AnalSect=LB   MatProp=Default
# ... 12 like lines cut
   Frame=1115137   AutoSelect=N.A.   AnalSect=EB   MatProp=Default
   Frame=1115138   AutoSelect=N.A.   AnalSect=Piles   MatProp=Default
   Frame=1115139   AutoSelect=N.A.   AnalSect=Piles   MatProp=Default
   Frame=1115140   AutoSelect=N.A.   AnalSect=EB   MatProp=Default
   Frame=1115141   AutoSelect=N.A.   AnalSect=Piles   MatProp=Default
   Frame=1115142   AutoSelect=N.A.   AnalSect=Piles   MatProp=Default
   Frame=1115143   AutoSelect=N.A.   AnalSect=EB   MatProp=Default
   Frame=1115144   AutoSelect=N.A.   AnalSect=Piles   MatProp=Default
   Frame=1115145   AutoSelect=N.A.   AnalSect=Piles   MatProp=Default
   Frame=1115146   AutoSelect=N.A.   AnalSect=EB   MatProp=Default
   Frame=1115147   AutoSelect=N.A.   AnalSect=Piles   MatProp=Default
   Frame=1115148   AutoSelect=N.A.   AnalSect=Piles   MatProp=Default
   Frame=1115149   AutoSelect=N.A.   AnalSect=EB   MatProp=Default
   Frame=1115150   AutoSelect=N.A.   AnalSect=Piles   MatProp=Default
   Frame=1115151   AutoSelect=N.A.   AnalSect=Piles   MatProp=Default
   Frame=1115152   AutoSelect=N.A.   AnalSect=EB   MatProp=Default
   Frame=1115153   AutoSelect=N.A.   AnalSect=Piles   MatProp=Default
   Frame=1115154   AutoSelect=N.A.   AnalSect=Piles   MatProp=Default
   Frame=1115155   AutoSelect=N.A.   AnalSect=EB   MatProp=Default
   Frame=1115156   AutoSelect=N.A.   AnalSect=Piles   MatProp=Default
   Frame=1115157   AutoSelect=N.A.   AnalSect=Piles   MatProp=Default
   Frame=1115158   AutoSelect=N.A.   AnalSect=Piles   MatProp=Default
   Frame=1115159   AutoSelect=N.A.   AnalSect=Piles   MatProp=Default
   Frame=1115160   AutoSelect=N.A.   AnalSect=Piles   MatProp=Default
   Frame=1115161   AutoSelect=N.A.   AnalSect=Piles   MatProp=Default
   Frame=1115162   AutoSelect=N.A.   AnalSect=Piles   MatProp=Default
   Frame=1115163   AutoSelect=N.A.   AnalSect=Piles   MatProp=Default
   Frame=1115164   AutoSelect=N.A.   AnalSect=Piles   MatProp=Default
   Frame=1115165   AutoSelect=N.A.   AnalSect=Piles   MatProp=Default
   Frame=1115166   AutoSelect=N.A.   AnalSect=Piles   MatProp=Default
   Frame=1115167   AutoSelect=N.A.   AnalSect=Piles   MatProp=Default
   Frame=1115168   AutoSelect=N.A.   AnalSect=Piles   MatProp=Default
   Frame=1115169   AutoSelect=N.A.   AnalSect=Piles   MatProp=Default
   Frame=1115170   AutoSelect=N.A.   AnalSect=Piles   MatProp=Default
   Frame=1115171   AutoSelect=N.A.   AnalSect=Piles   MatProp=Default
   Frame=1115172   AutoSelect=N.A.   AnalSect=Piles   MatProp=Default
   Frame=1115173   AutoSelect=N.A.   AnalSect=Piles   MatProp=Default
   Frame=1115174   AutoSelect=N.A.   AnalSect=Piles   MatProp=Default
   Frame=1115175   AutoSelect=N.A.   AnalSect=Piles   MatProp=Default
# ... 24 like lines cut
   Frame=1115200   AutoSelect=N.A.   AnalSect=EB-1   MatProp=Default
   Frame=1115201   AutoSelect=N.A.   AnalSect=EB-1   MatProp=Default
   Frame=1115202   AutoSelect=N.A.   AnalSect=EB-1   MatProp=Default
   Frame=1115203   AutoSelect=N.A.   AnalSect=EB-1   MatProp=Default
   Frame=1115204   AutoSelect=N.A.   AnalSect=EB-1   MatProp=Default
   Frame=1115205   AutoSelect=N.A.   AnalSect=EB-1   MatProp=Default
 
TABLE:  "FRAME SECTION PROPERTIES 01 - GENERAL"
   SectionName=EB   Material=BTCT   Shape=Rectangular   t3=1.2   t2=1.6   Area=1.92   TorsConst=0.49762575   I33=0.2304   I22=0.4096   I23=0   AS2=1.6   AS3=1.6   S33Top=0.384   S33Bot=0.384   S22Left=0.512   S22Right=0.512   Z33=0.576 _
        Z22=0.768   R33=0.346410161513775   R22=0.461880215351701   CGOffset3=0   CGOffset2=0   EccV2=0   EccV3=0   Cw=0   Color=Magenta   FromFile=No   AMod=1   A2Mod=1   A3Mod=1   JMod=1   I2Mod=1   I3Mod=1   MMod=1   WMod=1
   SectionName=EB-1   Material=BTCT   Shape=Rectangular   t3=1.6   t2=1.6   Area=2.56   TorsConst=0.922965333333334   I33=0.546133333333333   I22=0.546133333333333   I23=0   AS2=2.13333333333333   AS3=2.13333333333333 _
        S33Top=0.682666666666667   S33Bot=0.682666666666667   S22Left=0.682666666666667   S22Right=0.682666666666667   Z33=1.024   Z22=1.024   R33=0.461880215351701   R22=0.461880215351701   CGOffset3=0   CGOffset2=0   EccV2=0   EccV3=0 _
        Cw=0   Color=Yellow   FromFile=No   AMod=1   A2Mod=1   A3Mod=1   JMod=1   I2Mod=1   I3Mod=1   MMod=1   WMod=1
   SectionName=LB   Material=BTCT   Shape=Rectangular   t3=1.1   t2=1.6   Area=1.76   TorsConst=0.408129666327159   I33=0.177466666666667   I22=0.375466666666667   I23=0   AS2=1.46666666666667   AS3=1.46666666666667 _
        S33Top=0.322666666666667   S33Bot=0.322666666666667   S22Left=0.469333333333333   S22Right=0.469333333333333   Z33=0.484   Z22=0.704   R33=0.317542648054294   R22=0.461880215351701   CGOffset3=0   CGOffset2=0   EccV2=0   EccV3=0 _
        Cw=0   Color=Red   FromFile=No   AMod=1   A2Mod=1   A3Mod=1   JMod=1   I2Mod=1   I3Mod=1   MMod=1   WMod=1
   SectionName=Piles   Material=BTCTCOC   Shape=Pipe   t3=0.3   tw=0.06   Area=0.045238934211693   TorsConst=0.000692155693438903   I33=0.000346077846719452   I22=0.000346077846719452   I23=0   AS2=0.0235427106611872 _
        AS3=0.0235427106611872   S33Top=0.00230718564479634   S33Bot=0.00230718564479634   S22Left=0.00230718564479634   S22Right=0.00230718564479634   Z33=0.003528   Z22=0.003528   R33=0.0874642784226795   R22=0.0874642784226795 _
        CGOffset3=0   CGOffset2=0   EccV2=0   EccV3=0   Cw=0   Color=Gray8Dark   FromFile=No   AMod=1   A2Mod=1   A3Mod=1   JMod=1   I2Mod=1   I3Mod=1   MMod=1   WMod=1
   SectionName=TB   Material=BTCT   Shape=Rectangular   t3=1.1   t2=1.6   Area=1.76   TorsConst=0.408129666327159   I33=0.177466666666667   I22=0.375466666666667   I23=0   AS2=1.46666666666667   AS3=1.46666666666667 _
        S33Top=0.322666666666667   S33Bot=0.322666666666667   S22Left=0.469333333333333   S22Right=0.469333333333333   Z33=0.484   Z22=0.704   R33=0.317542648054294   R22=0.461880215351701   CGOffset3=0   CGOffset2=0   EccV2=0   EccV3=0 _
        Cw=0   Color=Cyan   FromFile=No   AMod=1   A2Mod=1   A3Mod=1   JMod=1   I2Mod=1   I3Mod=1   MMod=1   WMod=1
 
TABLE:  "FRAME SECTION PROPERTIES 02 - CONCRETE COLUMN"
   SectionName=EB   RebarMatL=A706   RebarMatC=A706   ReinfConfig=Rectangular   LatReinf=Ties   Cover=0.05   NumBars3Dir=2   NumBars2Dir=2   BarSizeL=12d   BarSizeC=10d   SpacingC=0.1   NumCBars2=2   NumCBars3=2   ReinfType=Design
   SectionName=EB-1   RebarMatL=A706   RebarMatC=A706   ReinfConfig=Rectangular   LatReinf=Ties   Cover=0.05   NumBars3Dir=2   NumBars2Dir=2   BarSizeL=12d   BarSizeC=10d   SpacingC=0.1   NumCBars2=2   NumCBars3=2   ReinfType=Design
   SectionName=LB   RebarMatL=A706   RebarMatC=A706   ReinfConfig=Rectangular   LatReinf=Ties   Cover=0.05   NumBars3Dir=2   NumBars2Dir=2   BarSizeL=12d   BarSizeC=10d   SpacingC=0.1   NumCBars2=2   NumCBars3=2   ReinfType=Design
   SectionName=TB   RebarMatL=A706   RebarMatC=A706   ReinfConfig=Rectangular   LatReinf=Ties   Cover=0.05   NumBars3Dir=2   NumBars2Dir=2   BarSizeL=12d   BarSizeC=10d   SpacingC=0.1   NumCBars2=2   NumCBars3=2   ReinfType=Design
 
TABLE:  "FRAME SECTION PROPERTIES 13 - TIME DEPENDENT"
   SectionName=EB   TypeSize=Auto   AutoSFSize=1
   SectionName=EB-1   TypeSize=Auto   AutoSFSize=1
   SectionName=LB   TypeSize=Auto   AutoSFSize=1
   SectionName=Piles   TypeSize=Auto   AutoSFSize=1
   SectionName=TB   TypeSize=Auto   AutoSFSize=1
 
TABLE:  "FUNCTION - PLOT FUNCTIONS"
   PlotFunc="Input Energy"   Type=Energy   Component=Input   Mode=All
 
TABLE:  "FUNCTION - POWER SPECTRAL DENSITY - USER"
   Name=UNIFPSD   Frequency=0   Value=1
   Name=UNIFPSD   Frequency=1   Value=1
 
TABLE:  "FUNCTION - RESPONSE SPECTRUM - USER"
   Name=UNIFRS   Period=0   Accel=1   FuncDamp=0.05
   Name=UNIFRS   Period=1   Accel=1
 
TABLE:  "FUNCTION - STEADY STATE - USER"
   Name=UNIFSS   Frequency=0   Value=1
   Name=UNIFSS   Frequency=1   Value=1
 
TABLE:  "FUNCTION - TIME HISTORY - USER"
   Name=RAMPTH   Time=0   Value=0
   Name=RAMPTH   Time=1   Value=1
   Name=RAMPTH   Time=4   Value=1
   Name=UNIFTH   Time=0   Value=1
   Name=UNIFTH   Time=1   Value=1
 
TABLE:  "GRID LINES"
   CoordSys=GLOBAL   AxisDir=X   GridID=A   XRYZCoord=-10   LineType=Primary   LineColor=Gray8Dark   Visible=Yes   BubbleLoc=End   AllVisible=Yes   BubbleSize=0.9375
   CoordSys=GLOBAL   AxisDir=X   GridID=B   XRYZCoord=-9   LineType=Primary   LineColor=Gray8Dark   Visible=Yes   BubbleLoc=End
   CoordSys=GLOBAL   AxisDir=X   GridID=C   XRYZCoord=-4.5   LineType=Primary   LineColor=Gray8Dark   Visible=Yes   BubbleLoc=End
   CoordSys=GLOBAL   AxisDir=X   GridID=D   XRYZCoord=0   LineType=Primary   LineColor=Gray8Dark   Visible=Yes   BubbleLoc=End
   CoordSys=GLOBAL   AxisDir=X   GridID=E   XRYZCoord=4.5   LineType=Primary   LineColor=Gray8Dark   Visible=Yes   BubbleLoc=End
   CoordSys=GLOBAL   AxisDir=X   GridID=F   XRYZCoord=9   LineType=Primary   LineColor=Gray8Dark   Visible=Yes   BubbleLoc=End
   CoordSys=GLOBAL   AxisDir=X   GridID=G   XRYZCoord=10   LineType=Primary   LineColor=Gray8Dark   Visible=Yes   BubbleLoc=End
   CoordSys=GLOBAL   AxisDir=Y   GridID=1   XRYZCoord=-5.2   LineType=Primary   LineColor=Gray8Dark   Visible=Yes   BubbleLoc=Start
   CoordSys=GLOBAL   AxisDir=Y   GridID=2   XRYZCoord=-4.2   LineType=Primary   LineColor=Gray8Dark   Visible=Yes   BubbleLoc=Start
   CoordSys=GLOBAL   AxisDir=Y   GridID=3   XRYZCoord=0   LineType=Primary   LineColor=Gray8Dark   Visible=Yes   BubbleLoc=Start
   CoordSys=GLOBAL   AxisDir=Y   GridID=4   XRYZCoord=4.2   LineType=Primary   LineColor=Gray8Dark   Visible=Yes   BubbleLoc=Start
   CoordSys=GLOBAL   AxisDir=Y   GridID=5   XRYZCoord=4.8   LineType=Primary   LineColor=Gray8Dark   Visible=Yes   BubbleLoc=Start
   CoordSys=GLOBAL   AxisDir=Z   GridID=Z1   XRYZCoord=0   LineType=Primary   LineColor=Gray8Dark   Visible=Yes   BubbleLoc=End
   CoordSys=GLOBAL   AxisDir=Z   GridID=Z2   XRYZCoord=13   LineType=Primary   LineColor=Gray8Dark   Visible=Yes   BubbleLoc=End
 
TABLE:  "GROUPS 1 - DEFINITIONS"
   GroupName=ALL   Selection=Yes   SectionCut=Yes   Steel=Yes   Concrete=Yes   Aluminum=Yes   ColdFormed=Yes   Stage=Yes   Bridge=Yes   AutoSeismic=No   AutoWind=No   SelDesSteel=No   SelDesAlum=No   SelDesCold=No   MassWeight=Yes   Color=Red
   GroupName=Pile   Selection=Yes   SectionCut=Yes   Steel=Yes   Concrete=Yes   Aluminum=Yes   ColdFormed=Yes   Stage=Yes   Bridge=Yes   AutoSeismic=No   AutoWind=No   SelDesSteel=No   SelDesAlum=No   SelDesCold=No   MassWeight=Yes   Color=Gray8Dark
   GroupName=DN   Selection=Yes   SectionCut=Yes   Steel=Yes   Concrete=Yes   Aluminum=Yes   ColdFormed=Yes   Stage=Yes   Bridge=Yes   AutoSeismic=No   AutoWind=No   SelDesSteel=No   SelDesAlum=No   SelDesCold=No   MassWeight=Yes   Color=Yellow
   GroupName=Pile_Toe   Selection=Yes   SectionCut=Yes   Steel=Yes   Concrete=Yes   Aluminum=Yes   ColdFormed=Yes   Stage=Yes   Bridge=Yes   AutoSeismic=No   AutoWind=No   SelDesSteel=No   SelDesAlum=No   SelDesCold=No   MassWeight=Yes   Color=Green
   GroupName=Pile_Bend   Selection=Yes   SectionCut=Yes   Steel=Yes   Concrete=Yes   Aluminum=Yes   ColdFormed=Yes   Stage=Yes   Bridge=Yes   AutoSeismic=No   AutoWind=No   SelDesSteel=No   SelDesAlum=No   SelDesCold=No   MassWeight=Yes   Color=Cyan
   GroupName=Beam   Selection=Yes   SectionCut=Yes   Steel=Yes   Concrete=Yes   Aluminum=Yes   ColdFormed=Yes   Stage=Yes   Bridge=Yes   AutoSeismic=No   AutoWind=No   SelDesSteel=No   SelDesAlum=No   SelDesCold=No   MassWeight=Yes   Color=Blue
   GroupName=Piles   Selection=Yes   SectionCut=Yes   Steel=Yes   Concrete=Yes   Aluminum=Yes   ColdFormed=Yes   Stage=Yes   Bridge=Yes   AutoSeismic=No   AutoWind=No   SelDesSteel=No   SelDesAlum=No   SelDesCold=No   MassWeight=Yes   Color=Cyan
   GroupName=Beams   Selection=Yes   SectionCut=Yes   Steel=Yes   Concrete=Yes   Aluminum=Yes   ColdFormed=Yes   Stage=Yes   Bridge=Yes   AutoSeismic=No   AutoWind=No   SelDesSteel=No   SelDesAlum=No   SelDesCold=No   MassWeight=Yes   Color=Red
 
TABLE:  "GROUPS 2 - ASSIGNMENTS"
 
TABLE:  "JOINT COORDINATES"
   Joint=961136   CoordSys=GLOBAL   CoordType=Cartesian   XorR=-9   Y=-5   Z=0   SpecialJt=No   GUID=c64b798d-8b64-419f-a011-8275cb1a541d
   Joint=961137   CoordSys=GLOBAL   CoordType=Cartesian   XorR=-9   Y=-4.5   Z=0   SpecialJt=No   GUID=eb2f449e-f9ac-4a97-91d1-938ba544aba7
   Joint=961138   CoordSys=GLOBAL   CoordType=Cartesian   XorR=-6   Y=-5   Z=0   SpecialJt=No   GUID=cb303bfa-2c35-4131-bceb-f541093b699d
   Joint=961139   CoordSys=GLOBAL   CoordType=Cartesian   XorR=-6   Y=-4.5   Z=0   SpecialJt=No   GUID=af1b46f8-7455-412c-a989-a2ef378ebf13
   Joint=961140   CoordSys=GLOBAL   CoordType=Cartesian   XorR=-3   Y=-5   Z=0   SpecialJt=No   GUID=8afae1c4-b580-4a6e-86f0-420a5c7bfe5c
   Joint=961141   CoordSys=GLOBAL   CoordType=Cartesian   XorR=-3   Y=-4.5   Z=0   SpecialJt=No   GUID=201abc39-32ce-4231-b7e8-c743616bc6cb
   Joint=961142   CoordSys=GLOBAL   CoordType=Cartesian   XorR=0   Y=-5   Z=0   SpecialJt=No   GUID=15007b3f-9497-4e10-b96a-a4ac69a9b164
   Joint=961143   CoordSys=GLOBAL   CoordType=Cartesian   XorR=0   Y=-4.5   Z=0   SpecialJt=No   GUID=baee6332-5ad0-4d16-aca0-ed1ac82217fa
   Joint=961144   CoordSys=GLOBAL   CoordType=Cartesian   XorR=3   Y=-5   Z=0   SpecialJt=No   GUID=a6686acb-ab30-4755-ace7-62adcfc28267
   Joint=961145   CoordSys=GLOBAL   CoordType=Cartesian   XorR=3   Y=-4.5   Z=0   SpecialJt=No   GUID=2c8c8aa4-e757-4c3d-a94d-8ee693251ed9
   Joint=961146   CoordSys=GLOBAL   CoordType=Cartesian   XorR=6   Y=-5   Z=0   SpecialJt=No   GUID=98066847-6e90-4704-a122-7a383b6931dc
   Joint=961147   CoordSys=GLOBAL   CoordType=Cartesian   XorR=6   Y=-4.5   Z=0   SpecialJt=No   GUID=09531b9e-1f06-40bc-93c3-4b22c71f82d5
   Joint=961148   CoordSys=GLOBAL   CoordType=Cartesian   XorR=9   Y=-5   Z=0   SpecialJt=No   GUID=275097b4-cce4-4830-a32a-ef91911f591f
   Joint=961149   CoordSys=GLOBAL   CoordType=Cartesian   XorR=9   Y=-4.5   Z=0   SpecialJt=No   GUID=0e4c9585-2fcb-4b9e-b002-033fcb921c7c
   Joint=961150   CoordSys=GLOBAL   CoordType=Cartesian   XorR=-9   Y=-1.5   Z=0   SpecialJt=No   GUID=a15f563e-d72d-4d4b-9cf2-3ecc6d2cbc26
   Joint=961151   CoordSys=GLOBAL   CoordType=Cartesian   XorR=-6   Y=-1.5   Z=0   SpecialJt=No   GUID=4afb9bd0-5d13-487b-9579-b712a286f1b5
   Joint=961152   CoordSys=GLOBAL   CoordType=Cartesian   XorR=-3   Y=-1.5   Z=0   SpecialJt=No   GUID=202a3845-24c6-42aa-ac8b-1a7e8b5663d3
   Joint=961153   CoordSys=GLOBAL   CoordType=Cartesian   XorR=0   Y=-1.5   Z=0   SpecialJt=No   GUID=f2ce34f9-830a-4fb7-bc16-727cba243733
   Joint=961154   CoordSys=GLOBAL   CoordType=Cartesian   XorR=3   Y=-1.5   Z=0   SpecialJt=No   GUID=f71b0d3b-ff5c-4cd2-8574-af74c41f5dc6
   Joint=961155   CoordSys=GLOBAL   CoordType=Cartesian   XorR=6   Y=-1.5   Z=0   SpecialJt=No   GUID=3c6009b3-c073-4271-9777-ca9fa0f0b945
   Joint=961156   CoordSys=GLOBAL   CoordType=Cartesian   XorR=9   Y=-1.5   Z=0   SpecialJt=No   GUID=3c854700-30bd-403c-8fbd-c306ad4ca153
   Joint=961157   CoordSys=GLOBAL   CoordType=Cartesian   XorR=-9   Y=1.5   Z=0   SpecialJt=No   GUID=fedcb6e2-8ca5-4410-81eb-09da8670dec0
   Joint=961158   CoordSys=GLOBAL   CoordType=Cartesian   XorR=-6   Y=1.5   Z=0   SpecialJt=No   GUID=56711f83-6f45-4923-9e29-d4f6331c40e3
   Joint=961159   CoordSys=GLOBAL   CoordType=Cartesian   XorR=-3   Y=1.5   Z=0   SpecialJt=No   GUID=fd513fdd-181e-4660-86ce-e0a7195827d5
   Joint=961160   CoordSys=GLOBAL   CoordType=Cartesian   XorR=0   Y=1.5   Z=0   SpecialJt=No   GUID=3188bc49-d54e-4b07-8a70-dbfd72a972b1
   Joint=961161   CoordSys=GLOBAL   CoordType=Cartesian   XorR=3   Y=1.5   Z=0   SpecialJt=No   GUID=b627c34e-febe-4917-a89a-c58a0934f56c
   Joint=961162   CoordSys=GLOBAL   CoordType=Cartesian   XorR=6   Y=1.5   Z=0   SpecialJt=No   GUID=1c790360-7967-4044-b91e-2aaa318569ea
   Joint=961163   CoordSys=GLOBAL   CoordType=Cartesian   XorR=9   Y=1.5   Z=0   SpecialJt=No   GUID=080bb75c-1c8c-4b73-bbcf-236cdd08354f
   Joint=961164   CoordSys=GLOBAL   CoordType=Cartesian   XorR=-9   Y=4.5   Z=0   SpecialJt=No   GUID=09e809ae-bd81-484e-8add-997305a529ac
   Joint=961165   CoordSys=GLOBAL   CoordType=Cartesian   XorR=-6   Y=4.5   Z=0   SpecialJt=No   GUID=ef441a97-ecca-4768-b251-c035e0135268
   Joint=961166   CoordSys=GLOBAL   CoordType=Cartesian   XorR=-3   Y=4.5   Z=0   SpecialJt=No   GUID=cb0ec79a-21f3-4a71-b059-d99a064088db
   Joint=961167   CoordSys=GLOBAL   CoordType=Cartesian   XorR=0   Y=4.5   Z=0   SpecialJt=No   GUID=81790049-bdcb-45e9-91a2-0dbb6df269ae
   Joint=961168   CoordSys=GLOBAL   CoordType=Cartesian   XorR=3   Y=4.5   Z=0   SpecialJt=No   GUID=08efa2f3-3b7d-47cf-9043-6f1961147247
   Joint=961169   CoordSys=GLOBAL   CoordType=Cartesian   XorR=6   Y=4.5   Z=0   SpecialJt=No   GUID=84b5af18-5c1f-45e8-b325-37f71adc0719
   Joint=961170   CoordSys=GLOBAL   CoordType=Cartesian   XorR=9   Y=4.5   Z=0   SpecialJt=No   GUID=666df539-284d-49ab-8464-865dfe10ab8a
   Joint=961171   CoordSys=GLOBAL   CoordType=Cartesian   XorR=-9   Y=5   Z=0   SpecialJt=No   GUID=ada29eb1-435c-4138-8fd3-cb0a8cd8003f
   Joint=961172   CoordSys=GLOBAL   CoordType=Cartesian   XorR=-6   Y=5   Z=0   SpecialJt=No   GUID=0ea64266-16a8-4588-9906-eecf7405bbc2
   Joint=961173   CoordSys=GLOBAL   CoordType=Cartesian   XorR=-3   Y=5   Z=0   SpecialJt=No   GUID=cfd2e9a8-bc6b-4638-8a12-a78fdba4a01f
   Joint=961174   CoordSys=GLOBAL   CoordType=Cartesian   XorR=0   Y=5   Z=0   SpecialJt=No   GUID=5d0fee1d-5220-46cf-87de-e1f86ed7c900
   Joint=961175   CoordSys=GLOBAL   CoordType=Cartesian   XorR=3   Y=5   Z=0   SpecialJt=No   GUID=a689a0a0-3e8b-4c88-845d-1853370aa144
   Joint=961176   CoordSys=GLOBAL   CoordType=Cartesian   XorR=6   Y=5   Z=0   SpecialJt=No   GUID=865c1de2-d0e9-44f8-a762-333928344538
   Joint=961177   CoordSys=GLOBAL   CoordType=Cartesian   XorR=9   Y=5   Z=0   SpecialJt=No   GUID=9355c81e-1866-4899-aaa4-8122e3300722
   Joint=961178   CoordSys=GLOBAL   CoordType=Cartesian   XorR=-10   Y=-4.5   Z=0   SpecialJt=No   GUID=0099f532-4144-4979-9374-bc6ad5877f7d
   Joint=961179   CoordSys=GLOBAL   CoordType=Cartesian   XorR=-10   Y=-1.5   Z=0   SpecialJt=No   GUID=dfa8c3b1-b6bb-444e-afe1-6be22c0c2ee5
   Joint=961180   CoordSys=GLOBAL   CoordType=Cartesian   XorR=-10   Y=1.5   Z=0   SpecialJt=No   GUID=22c120ba-564c-4bbf-bad4-69a4d7f7c650
   Joint=961181   CoordSys=GLOBAL   CoordType=Cartesian   XorR=-10   Y=4.5   Z=0   SpecialJt=No   GUID=35365e5d-f2af-4511-bb3a-f7f8a26e88cc
   Joint=961182   CoordSys=GLOBAL   CoordType=Cartesian   XorR=10   Y=-4.5   Z=0   SpecialJt=No   GUID=f6d605c2-521e-45b3-960f-b92bdb0d1bfc
   Joint=961183   CoordSys=GLOBAL   CoordType=Cartesian   XorR=10   Y=-1.5   Z=0   SpecialJt=No   GUID=4b9b437a-875a-495e-b930-1d7cc3340479
   Joint=961184   CoordSys=GLOBAL   CoordType=Cartesian   XorR=10   Y=1.5   Z=0   SpecialJt=No   GUID=03cf0f26-5d0b-4f63-8d1e-0fa82c26e45b
   Joint=961185   CoordSys=GLOBAL   CoordType=Cartesian   XorR=10   Y=4.5   Z=0   SpecialJt=No   GUID=3e111e30-6ef7-4193-b4c5-de827974dbaf
   Joint=961186   CoordSys=GLOBAL   CoordType=Cartesian   XorR=-9   Y=-4.5   Z=-3   SpecialJt=No   GUID=cff180fb-abdc-40db-ae95-dbed206a04cc
   Joint=961187   CoordSys=GLOBAL   CoordType=Cartesian   XorR=-9   Y=-4.5   Z=-13.4180229476075   SpecialJt=No   GUID=7417fbd2-ea67-4f08-84f6-fa2cd89b60e7
   Joint=961188   CoordSys=GLOBAL   CoordType=Cartesian   XorR=-9   Y=-4.5   Z=-16.4   SpecialJt=No   GUID=f8497e9d-5679-4f25-ab63-4572c2107e80
   Joint=961189   CoordSys=GLOBAL   CoordType=Cartesian   XorR=-6   Y=-4.5   Z=-3   SpecialJt=No   GUID=65ed75aa-5d91-42c8-a048-459140ace019
   Joint=961190   CoordSys=GLOBAL   CoordType=Cartesian   XorR=-6   Y=-4.5   Z=-13.4180229476075   SpecialJt=No   GUID=c29e6844-d420-4527-a85d-39f058abf66b
   Joint=961191   CoordSys=GLOBAL   CoordType=Cartesian   XorR=-6   Y=-4.5   Z=-16.4   SpecialJt=No   GUID=86ff6a19-ead2-46a8-8d5a-fabbab38cbeb
   Joint=961192   CoordSys=GLOBAL   CoordType=Cartesian   XorR=-3   Y=-4.5   Z=-3   SpecialJt=No   GUID=6d234b8a-b0ec-4973-8263-f648e06eb61d
   Joint=961193   CoordSys=GLOBAL   CoordType=Cartesian   XorR=-3   Y=-4.5   Z=-13.4180229476075   SpecialJt=No   GUID=2089a8d0-bc69-43fc-9c6f-7dafb92d1cbe
   Joint=961194   CoordSys=GLOBAL   CoordType=Cartesian   XorR=-3   Y=-4.5   Z=-16.4   SpecialJt=No   GUID=fd51ef8a-2c11-486b-b4fb-ccb56fe57fff
   Joint=961195   CoordSys=GLOBAL   CoordType=Cartesian   XorR=0   Y=-4.5   Z=-3   SpecialJt=No   GUID=6e485c07-6c91-4a7f-a339-973af0a6f139
   Joint=961196   CoordSys=GLOBAL   CoordType=Cartesian   XorR=0   Y=-4.5   Z=-13.4180229476075   SpecialJt=No   GUID=16212be6-5c49-4cbf-a00b-2864ff170bde
   Joint=961197   CoordSys=GLOBAL   CoordType=Cartesian   XorR=0   Y=-4.5   Z=-16.4   SpecialJt=No   GUID=b097b82b-53b5-4a68-a51d-bea4a6c68dfe
   Joint=961198   CoordSys=GLOBAL   CoordType=Cartesian   XorR=3   Y=-4.5   Z=-3   SpecialJt=No   GUID=1c568f04-5304-407d-8b4a-aac28aefff47
   Joint=961199   CoordSys=GLOBAL   CoordType=Cartesian   XorR=3   Y=-4.5   Z=-13.4180229476075   SpecialJt=No   GUID=41ae756b-7446-47cc-a26a-d190cc5c1bed
   Joint=961200   CoordSys=GLOBAL   CoordType=Cartesian   XorR=3   Y=-4.5   Z=-16.4   SpecialJt=No   GUID=e2d597bb-8a7e-4717-b854-e80d0076b939
   Joint=961201   CoordSys=GLOBAL   CoordType=Cartesian   XorR=6   Y=-4.5   Z=-3   SpecialJt=No   GUID=4cb7f7d8-efad-422f-9b9a-4292dabd01f1
   Joint=961202   CoordSys=GLOBAL   CoordType=Cartesian   XorR=6   Y=-4.5   Z=-13.4180229476075   SpecialJt=No   GUID=1ecb4ea8-77ab-4f8a-ac28-e8ed4b98ad41
   Joint=961203   CoordSys=GLOBAL   CoordType=Cartesian   XorR=6   Y=-4.5   Z=-16.4   SpecialJt=No   GUID=448ebcb9-2ec9-468e-bee1-206ebd2d4f32
   Joint=961204   CoordSys=GLOBAL   CoordType=Cartesian   XorR=9   Y=-4.5   Z=-3   SpecialJt=No   GUID=26a89f3d-ec0b-4bf8-994b-64af0c981c72
   Joint=961205   CoordSys=GLOBAL   CoordType=Cartesian   XorR=9   Y=-4.5   Z=-13.4180229476075   SpecialJt=No   GUID=6295b989-e9b0-40be-a099-147c25d81d99
   Joint=961206   CoordSys=GLOBAL   CoordType=Cartesian   XorR=9   Y=-4.5   Z=-16.4   SpecialJt=No   GUID=c41e4ac6-86a0-4a9e-a1b6-91b3784a46de
   Joint=961207   CoordSys=GLOBAL   CoordType=Cartesian   XorR=-9   Y=-1.5   Z=-13.4180229476075   SpecialJt=No   GUID=a776513d-8c1c-4188-9f95-0943655e546c
   Joint=961208   CoordSys=GLOBAL   CoordType=Cartesian   XorR=-9   Y=-1.5   Z=-16.4   SpecialJt=No   GUID=6f05d8f9-97a2-46bc-8731-6b6413bc92d0
   Joint=961209   CoordSys=GLOBAL   CoordType=Cartesian   XorR=-6   Y=-1.5   Z=-13.4180229476075   SpecialJt=No   GUID=98a7393a-4bfe-4ac2-a31d-5bc7e0628f7e
   Joint=961210   CoordSys=GLOBAL   CoordType=Cartesian   XorR=-6   Y=-1.5   Z=-16.4   SpecialJt=No   GUID=836a6011-704c-47f2-b574-19cb42293bea
   Joint=961211   CoordSys=GLOBAL   CoordType=Cartesian   XorR=-3   Y=-1.5   Z=-13.4180229476075   SpecialJt=No   GUID=9bc39774-cf0f-4b49-ab04-8b78e54a8e30
   Joint=961212   CoordSys=GLOBAL   CoordType=Cartesian   XorR=-3   Y=-1.5   Z=-16.4   SpecialJt=No   GUID=ffa3fc23-669c-4e33-9ce8-956006397b67
   Joint=961213   CoordSys=GLOBAL   CoordType=Cartesian   XorR=0   Y=-1.5   Z=-13.4180229476075   SpecialJt=No   GUID=04b4395d-0ec5-4580-ba24-ac45e7d8ce02
   Joint=961214   CoordSys=GLOBAL   CoordType=Cartesian   XorR=0   Y=-1.5   Z=-16.4   SpecialJt=No   GUID=ba0e8339-4dba-4b9c-8963-5afced8ae634
   Joint=961215   CoordSys=GLOBAL   CoordType=Cartesian   XorR=3   Y=-1.5   Z=-13.4180229476075   SpecialJt=No   GUID=f9dbee70-9376-48dd-ba27-1c6d4c1a93e8
   Joint=961216   CoordSys=GLOBAL   CoordType=Cartesian   XorR=3   Y=-1.5   Z=-16.4   SpecialJt=No   GUID=774af128-c4e7-4b9f-b27d-68f81cf74278
   Joint=961217   CoordSys=GLOBAL   CoordType=Cartesian   XorR=6   Y=-1.5   Z=-13.4180229476075   SpecialJt=No   GUID=e2ba3fe2-7c88-4296-8e55-b0e306df659b
   Joint=961218   CoordSys=GLOBAL   CoordType=Cartesian   XorR=6   Y=-1.5   Z=-16.4   SpecialJt=No   GUID=14e63755-937f-42b0-8f58-68071cefca5a
   Joint=961219   CoordSys=GLOBAL   CoordType=Cartesian   XorR=9   Y=-1.5   Z=-13.4180229476075   SpecialJt=No   GUID=33a36310-f033-4f47-826c-fe942f852c28
   Joint=961220   CoordSys=GLOBAL   CoordType=Cartesian   XorR=9   Y=-1.5   Z=-16.4   SpecialJt=No   GUID=2020e35e-676e-4167-ab46-8ddb5a81febe
   Joint=961221   CoordSys=GLOBAL   CoordType=Cartesian   XorR=-9   Y=1.5   Z=-13.4180229476075   SpecialJt=No   GUID=99a9cd93-5ec4-4079-b04e-41d5d414b36c
   Joint=961222   CoordSys=GLOBAL   CoordType=Cartesian   XorR=-9   Y=1.5   Z=-16.4   SpecialJt=No   GUID=734c46a9-aa97-492a-b3d5-5172abfe84cb
   Joint=961223   CoordSys=GLOBAL   CoordType=Cartesian   XorR=-6   Y=1.5   Z=-13.4180229476075   SpecialJt=No   GUID=ae48fb52-b89f-48fc-bc08-eb4be794ad69
   Joint=961224   CoordSys=GLOBAL   CoordType=Cartesian   XorR=-6   Y=1.5   Z=-16.4   SpecialJt=No   GUID=1228d229-7cdc-42e8-85db-349210a6f3df
   Joint=961225   CoordSys=GLOBAL   CoordType=Cartesian   XorR=-3   Y=1.5   Z=-13.4180229476075   SpecialJt=No   GUID=645d1881-b4a5-40de-b73b-2d59698883ee
   Joint=961226   CoordSys=GLOBAL   CoordType=Cartesian   XorR=-3   Y=1.5   Z=-16.4   SpecialJt=No   GUID=76016ffa-aafd-453a-9160-08e7b1cf0c5e
   Joint=961227   CoordSys=GLOBAL   CoordType=Cartesian   XorR=0   Y=1.5   Z=-13.4180229476075   SpecialJt=No   GUID=07ee5c96-4387-4d88-8aa6-2ee67bd44342
   Joint=961228   CoordSys=GLOBAL   CoordType=Cartesian   XorR=0   Y=1.5   Z=-16.4   SpecialJt=No   GUID=5561b8e7-4ee3-4f67-ace6-4bf84bc682bf
   Joint=961229   CoordSys=GLOBAL   CoordType=Cartesian   XorR=3   Y=1.5   Z=-13.4180229476075   SpecialJt=No   GUID=6f86a8f7-6017-4340-8e98-69f4cec02a7f
   Joint=961230   CoordSys=GLOBAL   CoordType=Cartesian   XorR=3   Y=1.5   Z=-16.4   SpecialJt=No   GUID=3a2ffc88-8cc7-4017-8de8-3e994c44f4a0
   Joint=961231   CoordSys=GLOBAL   CoordType=Cartesian   XorR=6   Y=1.5   Z=-13.4180229476075   SpecialJt=No   GUID=78c2783b-de94-400b-9010-90956f163720
   Joint=961232   CoordSys=GLOBAL   CoordType=Cartesian   XorR=6   Y=1.5   Z=-16.4   SpecialJt=No   GUID=abc9802c-5fa1-479b-93ac-eb1cb7912980
   Joint=961233   CoordSys=GLOBAL   CoordType=Cartesian   XorR=9   Y=1.5   Z=-13.4180229476075   SpecialJt=No   GUID=36156a90-ffba-42fd-aca6-d53ba378365b
   Joint=961234   CoordSys=GLOBAL   CoordType=Cartesian   XorR=9   Y=1.5   Z=-16.4   SpecialJt=No   GUID=c51993e5-d5b0-44e4-a0e6-27e52be98012
   Joint=961235   CoordSys=GLOBAL   CoordType=Cartesian   XorR=-9   Y=4.5   Z=-13.4180229476075   SpecialJt=No   GUID=d9c0a016-feb3-49e3-b6b2-46696f763e04
   Joint=961236   CoordSys=GLOBAL   CoordType=Cartesian   XorR=-9   Y=4.5   Z=-16.4   SpecialJt=No   GUID=f41da639-fb67-41cc-b506-50625b24027f
   Joint=961237   CoordSys=GLOBAL   CoordType=Cartesian   XorR=-6   Y=4.5   Z=-13.4180229476075   SpecialJt=No   GUID=ae49c66b-d949-409e-92f2-d9dc257b4c92
   Joint=961238   CoordSys=GLOBAL   CoordType=Cartesian   XorR=-6   Y=4.5   Z=-16.4   SpecialJt=No   GUID=4d48c2e6-f871-473c-b148-6ed15dce969e
   Joint=961239   CoordSys=GLOBAL   CoordType=Cartesian   XorR=-3   Y=4.5   Z=-13.4180229476075   SpecialJt=No   GUID=1fee6c07-4295-46f7-a187-f3d92b3acf5e
   Joint=961240   CoordSys=GLOBAL   CoordType=Cartesian   XorR=-3   Y=4.5   Z=-16.4   SpecialJt=No   GUID=8bc47d88-c8a8-46ee-9dbe-1723500e00b4
   Joint=961241   CoordSys=GLOBAL   CoordType=Cartesian   XorR=0   Y=4.5   Z=-13.4180229476075   SpecialJt=No   GUID=bd7ca168-9aaf-4666-9bba-fef647bbce3f
   Joint=961242   CoordSys=GLOBAL   CoordType=Cartesian   XorR=0   Y=4.5   Z=-16.4   SpecialJt=No   GUID=c8525ad8-68ed-406b-bea8-41ca00d3ae53
   Joint=961243   CoordSys=GLOBAL   CoordType=Cartesian   XorR=3   Y=4.5   Z=-13.4180229476075   SpecialJt=No   GUID=532db01e-6f67-4fca-9265-a113c6c90014
   Joint=961244   CoordSys=GLOBAL   CoordType=Cartesian   XorR=3   Y=4.5   Z=-16.4   SpecialJt=No   GUID=90760187-c322-44fc-a35a-294e8adeb3c7
   Joint=961245   CoordSys=GLOBAL   CoordType=Cartesian   XorR=6   Y=4.5   Z=-13.4180229476075   SpecialJt=No   GUID=3b6d8c60-43fb-4650-b226-a9331bed1578
   Joint=961246   CoordSys=GLOBAL   CoordType=Cartesian   XorR=6   Y=4.5   Z=-16.4   SpecialJt=No   GUID=9e571104-a399-4bf4-a622-1152c19f62d3
   Joint=961247   CoordSys=GLOBAL   CoordType=Cartesian   XorR=9   Y=4.5   Z=-13.4180229476075   SpecialJt=No   GUID=b8765a37-f8cf-41b8-9de7-e8001f8cbeb3
   Joint=961248   CoordSys=GLOBAL   CoordType=Cartesian   XorR=9   Y=4.5   Z=-16.4   SpecialJt=No   GUID=24df54e8-6df1-4e3b-96eb-54ab9e53bc21
   Joint=961249   CoordSys=GLOBAL   CoordType=Cartesian   XorR=-10   Y=-5   Z=0   SpecialJt=No   GUID=4b28b3d8-e887-479d-9255-2fcd76098964
   Joint=961250   CoordSys=GLOBAL   CoordType=Cartesian   XorR=10   Y=-5   Z=0   SpecialJt=No   GUID=5a67646c-78ec-497f-ab7b-90761cb55af5
   Joint=961251   CoordSys=GLOBAL   CoordType=Cartesian   XorR=-10   Y=5   Z=0   SpecialJt=No   GUID=e75a2741-ed56-4b27-88be-15dc5906f3ad
   Joint=961252   CoordSys=GLOBAL   CoordType=Cartesian   XorR=10   Y=5   Z=0   SpecialJt=No   GUID=2072d080-0227-4f62-93cc-234108a557de
 
TABLE:  "JOINT PATTERN DEFINITIONS"
   Pattern=Default
 
TABLE:  "JOINT RESTRAINT ASSIGNMENTS"
   Joint=961187   U1=Yes   U2=Yes   U3=No   R1=Yes   R2=Yes   R3=Yes
   Joint=961188   U1=No   U2=No   U3=Yes   R1=No   R2=No   R3=No
   Joint=961190   U1=Yes   U2=Yes   U3=No   R1=Yes   R2=Yes   R3=Yes
   Joint=961191   U1=No   U2=No   U3=Yes   R1=No   R2=No   R3=No
   Joint=961193   U1=Yes   U2=Yes   U3=No   R1=Yes   R2=Yes   R3=Yes
   Joint=961194   U1=No   U2=No   U3=Yes   R1=No   R2=No   R3=No
   Joint=961196   U1=Yes   U2=Yes   U3=No   R1=Yes   R2=Yes   R3=Yes
   Joint=961197   U1=No   U2=No   U3=Yes   R1=No   R2=No   R3=No
   Joint=961199   U1=Yes   U2=Yes   U3=No   R1=Yes   R2=Yes   R3=Yes
   Joint=961200   U1=No   U2=No   U3=Yes   R1=No   R2=No   R3=No
   Joint=961202   U1=Yes   U2=Yes   U3=No   R1=Yes   R2=Yes   R3=Yes
   Joint=961203   U1=No   U2=No   U3=Yes   R1=No   R2=No   R3=No
   Joint=961205   U1=Yes   U2=Yes   U3=No   R1=Yes   R2=Yes   R3=Yes
   Joint=961206   U1=No   U2=No   U3=Yes   R1=No   R2=No   R3=No
   Joint=961207   U1=Yes   U2=Yes   U3=No   R1=Yes   R2=Yes   R3=Yes
   Joint=961208   U1=No   U2=No   U3=Yes   R1=No   R2=No   R3=No
   Joint=961209   U1=Yes   U2=Yes   U3=No   R1=Yes   R2=Yes   R3=Yes
   Joint=961210   U1=No   U2=No   U3=Yes   R1=No   R2=No   R3=No
   Joint=961211   U1=Yes   U2=Yes   U3=No   R1=Yes   R2=Yes   R3=Yes
   Joint=961212   U1=No   U2=No   U3=Yes   R1=No   R2=No   R3=No
   Joint=961213   U1=Yes   U2=Yes   U3=No   R1=Yes   R2=Yes   R3=Yes
   Joint=961214   U1=No   U2=No   U3=Yes   R1=No   R2=No   R3=No
   Joint=961215   U1=Yes   U2=Yes   U3=No   R1=Yes   R2=Yes   R3=Yes
   Joint=961216   U1=No   U2=No   U3=Yes   R1=No   R2=No   R3=No
   Joint=961217   U1=Yes   U2=Yes   U3=No   R1=Yes   R2=Yes   R3=Yes
   Joint=961218   U1=No   U2=No   U3=Yes   R1=No   R2=No   R3=No
   Joint=961219   U1=Yes   U2=Yes   U3=No   R1=Yes   R2=Yes   R3=Yes
   Joint=961220   U1=No   U2=No   U3=Yes   R1=No   R2=No   R3=No
   Joint=961221   U1=Yes   U2=Yes   U3=No   R1=Yes   R2=Yes   R3=Yes
   Joint=961222   U1=No   U2=No   U3=Yes   R1=No   R2=No   R3=No
   Joint=961223   U1=Yes   U2=Yes   U3=No   R1=Yes   R2=Yes   R3=Yes
   Joint=961224   U1=No   U2=No   U3=Yes   R1=No   R2=No   R3=No
   Joint=961225   U1=Yes   U2=Yes   U3=No   R1=Yes   R2=Yes   R3=Yes
   Joint=961226   U1=No   U2=No   U3=Yes   R1=No   R2=No   R3=No
   Joint=961227   U1=Yes   U2=Yes   U3=No   R1=Yes   R2=Yes   R3=Yes
   Joint=961228   U1=No   U2=No   U3=Yes   R1=No   R2=No   R3=No
   Joint=961229   U1=Yes   U2=Yes   U3=No   R1=Yes   R2=Yes   R3=Yes
   Joint=961230   U1=No   U2=No   U3=Yes   R1=No   R2=No   R3=No
   Joint=961231   U1=Yes   U2=Yes   U3=No   R1=Yes   R2=Yes   R3=Yes
   Joint=961232   U1=No   U2=No   U3=Yes   R1=No   R2=No   R3=No
# ... 16 like lines cut
 
TABLE:  "LOAD CASE DEFINITIONS"
   Case=DEAD   Type=LinStatic   InitialCond=Zero   DesTypeOpt="Prog Det"   DesignType=Dead   DesActOpt="Prog Det"   DesignAct=Non-Composite   AutoType=None   RunCase=Yes
   Case=MODAL   Type=LinModal   InitialCond=Zero   DesTypeOpt="Prog Det"   DesignType=Other   DesActOpt="Prog Det"   DesignAct=Other   AutoType=None   RunCase=Yes
   Case=LL   Type=LinStatic   InitialCond=Zero   DesTypeOpt="Prog Det"   DesignType=Live   DesActOpt="Prog Det"   DesignAct="Short-Term Composite"   AutoType=None   RunCase=Yes
 
TABLE:  "LOAD PATTERN DEFINITIONS"
   LoadPat=DEAD   DesignType=Dead   SelfWtMult=1
   LoadPat=LL   DesignType=Live   SelfWtMult=0
 
TABLE:  "MASS SOURCE"
   MassSource=MSSSRC1   Elements=Yes   Masses=Yes   Loads=No   IsDefault=Yes
 
TABLE:  "MATERIAL PROPERTIES 01 - GENERAL"
   Material=A706   Type=Rebar   SymType=Uniaxial   TempDepend=No   Color=Gray8Dark   GUID=30185aab-1311-4f4b-9ffe-ddad707d22d9   Notes="ASTM A706 added 8/23/2025 4:27:57 PM"
   Material=BTCT   Type=Concrete   SymType=Isotropic   TempDepend=No   Color=Blue   Notes="Concrete added 24-Feb-23 16:30:01"
   Material=BTCTCOC   Type=Concrete   SymType=Isotropic   TempDepend=No   Color=Blue   Notes="Concrete added 24-Feb-23 16:30:01"
   Material=Steel   Type=Steel   SymType=Isotropic   TempDepend=No   Color=Magenta   GUID=2f952889-4898-4964-97a4-5fb5c5008d33   Notes="Steel added 8/24/2025 2:51:43 PM"
   Material=Tendon   Type=Tendon   SymType=Uniaxial   TempDepend=No   Color=Yellow   GUID=7dfcd093-823e-4b3a-b96f-35d5bcaf456f   Notes="Tendon added 8/24/2025 2:51:43 PM"
 
TABLE:  "MATERIAL PROPERTIES 02 - BASIC MECHANICAL PROPERTIES"
   Material=A706   UnitWeight=7.84904757236607   UnitMass=0.800380070686609   E1=20389019.1580383   A1=1.16999994421006E-05
   Material=BTCT   UnitWeight=2.40276966501002   UnitMass=0.245014307353044   E1=2900000   G12=1208333.33333333   U12=0.2   A1=9.9E-06
   Material=BTCTCOC   UnitWeight=2.40276966501002   UnitMass=0.245014307353044   E1=3800000000   G12=1583333333.33333   U12=0.2   A1=9.9E-06
   Material=Steel   UnitWeight=7.84904757236607   UnitMass=0.800380070686609   E1=20389019.1580383   G12=7841930.44539935   U12=0.3   A1=1.17E-05
   Material=Tendon   UnitWeight=7.84904757236607   UnitMass=0.800380070686609   E1=20037484.3449687   A1=1.16999994421006E-05
 
TABLE:  "MATERIAL PROPERTIES 03A - STEEL DATA"
   Material=Steel   Fy=35153.4813069626   Fu=45699.5256990514   EffFy=38668.8294376589   EffFu=50269.4782689565   SSCurveOpt=Simple   SSHysType=Kinematic   SHard=0.015   SMax=0.11   SRup=0.17   FinalSlope=-0.1   CoupModType="Von Mises"
 
TABLE:  "MATERIAL PROPERTIES 03B - CONCRETE DATA"
   Material=BTCT   Fc=2812.27850455701   eFc=2812.27850455701   LtWtConc=No   SSCurveOpt=Mander   SSHysType=Takeda   SFc=0.002   SCap=0.005   FinalSlope=-0.1   FAngle=0   DAngle=0   CoupModType="Modified Darwin-Pecknold"
   Material=BTCTCOC   Fc=2812.27850455701   eFc=2812.27850455701   LtWtConc=No   SSCurveOpt=Mander   SSHysType=Takeda   SFc=0.002   SCap=0.005   FinalSlope=-0.1   FAngle=0   DAngle=0   CoupModType="Modified Darwin-Pecknold"
 
TABLE:  "MATERIAL PROPERTIES 03E - REBAR DATA"
   Material=A706   Fy=42184.1775683551   Fu=56245.5700911402   EffFy=46402.5953251907   EffFu=61870.1271002542   SSCurveOpt=Simple   SSHysType=Kinematic   SHard=0.011   SCap=0.11   FinalSlope=-0.1   UseCTDef=No   CoupModType="Von Mises"
 
TABLE:  "MATERIAL PROPERTIES 03F - TENDON DATA"
   Material=Tendon   Fy=172322.365366731   Fu=189828.799057598   SSCurveOpt="270 ksi"   SSHysType=Kinematic   FinalSlope=-0.1   CoupModType="Von Mises"
 
TABLE:  "MATERIAL PROPERTIES 03J - COUPLED NONLINEAR VON MISES DATA"
   Material=A706   YieldStress=46402.5953251907   LinIsoHard=No   LinKinHard=No   NLIsoSaHard=No
   Material=Steel   YieldStress=38668.8294376589   LinIsoHard=No   LinKinHard=No   NLIsoSaHard=No
   Material=Tendon   YieldStress=172322.365366731   LinIsoHard=No   LinKinHard=No   NLIsoSaHard=No
 
TABLE:  "MATERIAL PROPERTIES 06 - DAMPING PARAMETERS"
   Material=A706   ModalRatio=0   VisMass=0   VisStiff=0   HysMass=0   HysStiff=0
   Material=BTCT   ModalRatio=0   VisMass=0   VisStiff=0   HysMass=0   HysStiff=0
   Material=BTCTCOC   ModalRatio=0   VisMass=0   VisStiff=0   HysMass=0   HysStiff=0
   Material=Steel   ModalRatio=0   VisMass=0   VisStiff=0   HysMass=0   HysStiff=0
   Material=Tendon   ModalRatio=0   VisMass=0   VisStiff=0   HysMass=0   HysStiff=0
 
TABLE:  "MATERIAL PROPERTIES 09 - ACCEPTANCE CRITERIA"
   Material=A706   IOTens=0.01   LSTens=0.02   CPTens=0.05   IOComp=-0.005   LSComp=-0.01   CPComp=-0.02
   Material=BTCT   IOTens=0.01   LSTens=0.02   CPTens=0.05   IOComp=-0.003   LSComp=-0.006   CPComp=-0.015   IgnoreTens=Yes
   Material=BTCTCOC   IOTens=0.01   LSTens=0.02   CPTens=0.05   IOComp=-0.003   LSComp=-0.006   CPComp=-0.015   IgnoreTens=Yes
   Material=Steel   IOTens=0.01   LSTens=0.02   CPTens=0.05   IOComp=-0.005   LSComp=-0.01   CPComp=-0.02
   Material=Tendon   IOTens=0.015   LSTens=0.023   CPTens=0.03   IOComp=-0.015   LSComp=-0.023   CPComp=-0.03
 
TABLE:  "OPTIONS - COLORS - DISPLAY"
   DeviceType=Screen   Points=Blue   LinesFrame=Blue   LinesFrmDL=Blue   LinesCable=Green   LinesTendon=Green   SpringLinks=Green   Restraints=Green   Releases=Green   Axes=Cyan   Text=Black   ShadowLines=Gray8Dark   GuideLines=Gray8Dark _
        Highlight=Red   Selection=10504778   AreaFillBot=Red   AreaFillTop=16744703   AreaFillSd=Red   AreaEdge=DarkRed   SolidF1=Red   SolidF2=Blue   SolidF3=Green   SolidF4=Yellow   SolidF5=White   SolidF6=Cyan   SolidEdge=DarkRed _
        Floor=Gray4   Background=White   BGLowLeft=White   BGLowRight=White   BGUpRight=White   Darkness=0.5
   DeviceType=Printer   Points=Gray8Dark   LinesFrame=Black   LinesFrmDL=Gray4   LinesCable=Black   LinesTendon=Black   SpringLinks=Gray8Dark   Restraints=Gray8Dark   Releases=Gray4   Axes=Black   Text=Black   ShadowLines=Gray4 _
        GuideLines=Gray4   Highlight=Black   Selection=Black   AreaFillBot=Gray4   AreaFillTop=Gray8Dark   AreaFillSd=Gray4   AreaEdge=Black   SolidF1=Gray1Light   SolidF2=Gray2   SolidF3=Gray3   SolidF4=Gray4   SolidF5=Gray5 _
        SolidF6=Gray6   SolidEdge=Black   Floor=Gray4   Background=White   BGLowLeft=White   BGLowRight=White   BGUpRight=White   Darkness=0.5
   DeviceType="Color Printer"   Points=Blue   LinesFrame=Blue   LinesFrmDL=Blue   LinesCable=Green   LinesTendon=Green   SpringLinks=Green   Restraints=Green   Releases=Green   Axes=Cyan   Text=Black   ShadowLines=Gray8Dark _
        GuideLines=Gray8Dark   Highlight=Red   Selection=10504778   AreaFillBot=Red   AreaFillTop=16744703   AreaFillSd=Red   AreaEdge=DarkRed   SolidF1=Red   SolidF2=Blue   SolidF3=Green   SolidF4=Yellow   SolidF5=White   SolidF6=Cyan _
        SolidEdge=DarkRed   Floor=Gray4   Background=White   BGLowLeft=White   BGLowRight=White   BGUpRight=White   Darkness=0.5
 
TABLE:  "OPTIONS - COLORS - OUTPUT"
   DeviceType=Screen   Contour1=13107400   Contour2=6553828   Contour3=Red   Contour4=16639   Contour5=Orange   Contour6=43775   Contour7=54527   Contour8=Yellow   Contour9=65408   Contour10=Green   Contour11=8453888   Contour12=Cyan _
        Contour13=16755200   Contour14=16733440   Contour15=Blue   Transpare=0.5   Ratio1=Cyan   Ratio2=Green   Ratio3=Yellow   Ratio4=Orange   Ratio5=Red   RatioNotD=Gray4   RatioNotC=Red   RatioVal1=0.5   RatioVal2=0.7   RatioVal3=0.9 _
        RatioVal4=1   DFillPos=Blue   DFillNeg=Red   DFillRPos=Green   DFillRNeg=Green
   DeviceType=Printer   Contour1=Black   Contour2=3158064   Contour3=4210752   Contour4=5263440   Contour5=6316128   Contour6=7368816   Contour7=Gray8Dark   Contour8=Gray7   Contour9=Gray6   Contour10=Gray5   Contour11=Gray4 _
        Contour12=Gray3   Contour13=Gray2   Contour14=Gray1Light   Contour15=White   Transpare=0   Ratio1=Gray2   Ratio2=Gray4   Ratio3=Gray8Dark   Ratio4=4210752   Ratio5=Black   RatioNotD=Gray4   RatioNotC=Black   RatioVal1=0.5 _
        RatioVal2=0.7   RatioVal3=0.9   RatioVal4=1   DFillPos=Gray8Dark   DFillNeg=Gray8Dark   DFillRPos=4210752   DFillRNeg=4210752
   DeviceType="Color Printer"   Contour1=13107400   Contour2=6553828   Contour3=Red   Contour4=16639   Contour5=Orange   Contour6=43775   Contour7=54527   Contour8=Yellow   Contour9=65408   Contour10=Green   Contour11=8453888 _
        Contour12=Cyan   Contour13=16755200   Contour14=16733440   Contour15=Blue   Transpare=0   Ratio1=Cyan   Ratio2=Green   Ratio3=Yellow   Ratio4=Orange   Ratio5=Red   RatioNotD=Gray4   RatioNotC=Red   RatioVal1=0.5   RatioVal2=0.7 _
        RatioVal3=0.9   RatioVal4=1   DFillPos=Blue   DFillNeg=Red   DFillRPos=Green   DFillRNeg=Green
 
TABLE:  "OVERWRITES - CONCRETE DESIGN - CSA-A233-14"
   Frame=1115070   DesignSect="Program Determined"   FrameType="Program Determined"   RLLF=0   XLMajor=0   XLMinor=0   XKMajor=0   XKMinor=0   CmMajor=0   CmMinor=0   DbMajor=0   DbMinor=0   DsMajor=0   DsMinor=0   Rd=0   Ro=0   MaxAggSize=0
   Frame=1115071   DesignSect="Program Determined"   FrameType="Program Determined"   RLLF=0   XLMajor=0   XLMinor=0   XKMajor=0   XKMinor=0   CmMajor=0   CmMinor=0   DbMajor=0   DbMinor=0   DsMajor=0   DsMinor=0   Rd=0   Ro=0   MaxAggSize=0
   Frame=1115072   DesignSect="Program Determined"   FrameType="Program Determined"   RLLF=0   XLMajor=0   XLMinor=0   XKMajor=0   XKMinor=0   CmMajor=0   CmMinor=0   DbMajor=0   DbMinor=0   DsMajor=0   DsMinor=0   Rd=0   Ro=0   MaxAggSize=0
   Frame=1115073   DesignSect="Program Determined"   FrameType="Program Determined"   RLLF=0   XLMajor=0   XLMinor=0   XKMajor=0   XKMinor=0   CmMajor=0   CmMinor=0   DbMajor=0   DbMinor=0   DsMajor=0   DsMinor=0   Rd=0   Ro=0   MaxAggSize=0
   Frame=1115074   DesignSect="Program Determined"   FrameType="Program Determined"   RLLF=0   XLMajor=0   XLMinor=0   XKMajor=0   XKMinor=0   CmMajor=0   CmMinor=0   DbMajor=0   DbMinor=0   DsMajor=0   DsMinor=0   Rd=0   Ro=0   MaxAggSize=0
   Frame=1115075   DesignSect="Program Determined"   FrameType="Program Determined"   RLLF=0   XLMajor=0   XLMinor=0   XKMajor=0   XKMinor=0   CmMajor=0   CmMinor=0   DbMajor=0   DbMinor=0   DsMajor=0   DsMinor=0   Rd=0   Ro=0   MaxAggSize=0
   Frame=1115076   DesignSect="Program Determined"   FrameType="Program Determined"   RLLF=0   XLMajor=0   XLMinor=0   XKMajor=0   XKMinor=0   CmMajor=0   CmMinor=0   DbMajor=0   DbMinor=0   DsMajor=0   DsMinor=0   Rd=0   Ro=0   MaxAggSize=0
   Frame=1115077   DesignSect="Program Determined"   FrameType="Program Determined"   RLLF=0   XLMajor=0   XLMinor=0   XKMajor=0   XKMinor=0   CmMajor=0   CmMinor=0   DbMajor=0   DbMinor=0   DsMajor=0   DsMinor=0   Rd=0   Ro=0   MaxAggSize=0
   Frame=1115078   DesignSect="Program Determined"   FrameType="Program Determined"   RLLF=0   XLMajor=0   XLMinor=0   XKMajor=0   XKMinor=0   CmMajor=0   CmMinor=0   DbMajor=0   DbMinor=0   DsMajor=0   DsMinor=0   Rd=0   Ro=0   MaxAggSize=0
   Frame=1115079   DesignSect="Program Determined"   FrameType="Program Determined"   RLLF=0   XLMajor=0   XLMinor=0   XKMajor=0   XKMinor=0   CmMajor=0   CmMinor=0   DbMajor=0   DbMinor=0   DsMajor=0   DsMinor=0   Rd=0   Ro=0   MaxAggSize=0
   Frame=1115080   DesignSect="Program Determined"   FrameType="Program Determined"   RLLF=0   XLMajor=0   XLMinor=0   XKMajor=0   XKMinor=0   CmMajor=0   CmMinor=0   DbMajor=0   DbMinor=0   DsMajor=0   DsMinor=0   Rd=0   Ro=0   MaxAggSize=0
   Frame=1115081   DesignSect="Program Determined"   FrameType="Program Determined"   RLLF=0   XLMajor=0   XLMinor=0   XKMajor=0   XKMinor=0   CmMajor=0   CmMinor=0   DbMajor=0   DbMinor=0   DsMajor=0   DsMinor=0   Rd=0   Ro=0   MaxAggSize=0
   Frame=1115082   DesignSect="Program Determined"   FrameType="Program Determined"   RLLF=0   XLMajor=0   XLMinor=0   XKMajor=0   XKMinor=0   CmMajor=0   CmMinor=0   DbMajor=0   DbMinor=0   DsMajor=0   DsMinor=0   Rd=0   Ro=0   MaxAggSize=0
   Frame=1115083   DesignSect="Program Determined"   FrameType="Program Determined"   RLLF=0   XLMajor=0   XLMinor=0   XKMajor=0   XKMinor=0   CmMajor=0   CmMinor=0   DbMajor=0   DbMinor=0   DsMajor=0   DsMinor=0   Rd=0   Ro=0   MaxAggSize=0
   Frame=1115084   DesignSect="Program Determined"   FrameType="Program Determined"   RLLF=0   XLMajor=0   XLMinor=0   XKMajor=0   XKMinor=0   CmMajor=0   CmMinor=0   DbMajor=0   DbMinor=0   DsMajor=0   DsMinor=0   Rd=0   Ro=0   MaxAggSize=0
   Frame=1115085   DesignSect="Program Determined"   FrameType="Program Determined"   RLLF=0   XLMajor=0   XLMinor=0   XKMajor=0   XKMinor=0   CmMajor=0   CmMinor=0   DbMajor=0   DbMinor=0   DsMajor=0   DsMinor=0   Rd=0   Ro=0   MaxAggSize=0
   Frame=1115086   DesignSect="Program Determined"   FrameType="Program Determined"   RLLF=0   XLMajor=0   XLMinor=0   XKMajor=0   XKMinor=0   CmMajor=0   CmMinor=0   DbMajor=0   DbMinor=0   DsMajor=0   DsMinor=0   Rd=0   Ro=0   MaxAggSize=0
   Frame=1115087   DesignSect="Program Determined"   FrameType="Program Determined"   RLLF=0   XLMajor=0   XLMinor=0   XKMajor=0   XKMinor=0   CmMajor=0   CmMinor=0   DbMajor=0   DbMinor=0   DsMajor=0   DsMinor=0   Rd=0   Ro=0   MaxAggSize=0
   Frame=1115088   DesignSect="Program Determined"   FrameType="Program Determined"   RLLF=0   XLMajor=0   XLMinor=0   XKMajor=0   XKMinor=0   CmMajor=0   CmMinor=0   DbMajor=0   DbMinor=0   DsMajor=0   DsMinor=0   Rd=0   Ro=0   MaxAggSize=0
   Frame=1115089   DesignSect="Program Determined"   FrameType="Program Determined"   RLLF=0   XLMajor=0   XLMinor=0   XKMajor=0   XKMinor=0   CmMajor=0   CmMinor=0   DbMajor=0   DbMinor=0   DsMajor=0   DsMinor=0   Rd=0   Ro=0   MaxAggSize=0
# ... 60 like lines cut
 
TABLE:  "PREFERENCES - ALUMINUM DESIGN - AA 2015"
   THDesign=Envelopes   SRatioLimit=1   Provision=ASD   LatFact=1.33333333333333   UseLatFact=No   Bridge=No   OmegaTy=1.65   OmegaTr=1.95   OmegaC=1.65   OmegaBo=1.65   OmegaBr=1.95   OmegaVo=1.65   OmegaVr=1.95
 
TABLE:  "PREFERENCES - COLD FORMED DESIGN - AISI-ASD96"
   THDesign=Envelopes   FrameType="Braced Frame"   SRatioLimit=1   MaxIter=1   OmegaBS=1.67   OmegaBUS=1.67   OmegaBLTB=1.67   OmegaVS=1.67   OmegaVNS=1.5   OmegaT=1.67   OmegaC=1.8
 
TABLE:  "PREFERENCES - CONCRETE DESIGN - CSA-A233-14"
   THDesign=Envelopes   NumCurves=24   NumPoints=11   MinEccen=Yes   BCCDesign=Yes   CTorsion=Yes   PatLLF=0.75   UFLimit=0.95   PhiS=0.85   PhiC=0.65
 
TABLE:  "PREFERENCES - CONCRETE SHELL DESIGN - EUROCODE 2-2004"
   Country="CEN Default"   GammaS=1.15   GammaC=1.5   AlphaCC=1
 
TABLE:  "PREFERENCES - DIMENSIONAL"
   MergeTol=0.001   FineGrid=0.25   Nudge=0.25   SelectTol=3   SnapTol=12   SLineThick=1   PLineThick=4   MaxFont=8   MinFont=3   AutoZoom=10   ShrinkFact=70   TextFileLen=240
 
TABLE:  "PREFERENCES - STEEL DESIGN - AISC 360-10"
   THDesign=Envelopes   FrameType=SMF   PatLLF=0.75   SRatioLimit=0.95   MaxIter=1   SDC=D   SeisCode=No   SeisLoad=No   ImpFactor=1   SystemRho=1   SystemSds=0.5   SystemR=8   SystemCd=5.5   Omega0=3   Provision=LRFD _
        AMethod="Direct Analysis"   SOMethod="General 2nd Order"   SRMethod="Tau-b Fixed"   NLCoeff=0.002   PhiB=0.9   PhiC=0.9   PhiTY=0.9   PhiTF=0.75   PhiV=0.9   PhiVRolledI=1   PhiVT=0.9   PlugWeld=Yes   HSSWelding=ERW   HSSReduceT=No _
        CheckDefl=No   DLRat=120   SDLAndLLRat=120   LLRat=360   TotalRat=240   NetRat=240
 
TABLE:  "PROGRAM CONTROL"
   ProgramName=SAP2000   Version=24.0.0   CurrUnits="Tonf, m, C"   SteelCode="AISC 360-10"   ConcCode="CSA A23.3-14"   AlumCode="AA 2015"   ColdCode=AISI-ASD96   RegenHinge=Yes
 
TABLE:  "PROJECT INFORMATION"
   Item="Company Name"   Data=po
   Item="Client Name"
   Item="Project Name"
   Item="Project Number"
   Item="Model Name"
   Item="Model Description"
   Item="Revision Number"
   Item="Frame Type"
   Item=Engineer
   Item=Checker
   Item=Supervisor
   Item="Issue Code"
   Item="Design Code"
 
TABLE:  "REBAR SIZES"
   RebarID=#2   Area=3.2258E-05   Diameter=0.00635
   RebarID=#3   Area=7.09675996154547E-05   Diameter=0.009525
   RebarID=#4   Area=0.000129032001922727   Diameter=0.0127
   RebarID=#5   Area=0.000199999601538181   Diameter=0.015875
   RebarID=#6   Area=0.000283870398461819   Diameter=0.01905
   RebarID=#7   Area=0.000387096015381813   Diameter=0.022225
   RebarID=#8   Area=0.000509676413843632   Diameter=0.0254
   RebarID=#9   Area=0.00064516   Diameter=0.0286512005329132
   RebarID=#10   Area=0.00081935318769455   Diameter=0.0322579995155334
   RebarID=#11   Area=0.00100644956308365   Diameter=0.0358139991521835
   RebarID=#14   Area=0.00145161   Diameter=0.0430021989583969
   RebarID=#18   Area=0.00258064   Diameter=0.0573277992248535
   RebarID=10M   Area=0.000100000004162606   Diameter=0.0113000003604438
   RebarID=15M   Area=0.000200000008325212   Diameter=0.0160000002402959
   RebarID=20M   Area=0.000300000012487818   Diameter=0.0195000002928606
   RebarID=25M   Area=0.000500000020813031   Diameter=0.0252000011414055
   RebarID=30M   Area=0.000700000029138243   Diameter=0.0299000000675832
   RebarID=35M   Area=0.00100000004162606   Diameter=0.0357000012990997
   RebarID=45M   Area=0.00150000006243909   Diameter=0.0437000014192476
   RebarID=55M   Area=0.00250000010406515   Diameter=0.056400002372922
   RebarID=6d   Area=2.83000004150781E-05   Diameter=0.00600000009011096
   RebarID=8d   Area=5.03000013308514E-05   Diameter=0.00800000012014795
   RebarID=10d   Area=7.85000032676458E-05   Diameter=0.0100000001501849
   RebarID=12d   Area=0.000113000004703745   Diameter=0.0120000001802219
   RebarID=14d   Area=0.000154000006410413   Diameter=0.0140000002102589
   RebarID=16d   Area=0.000201000008366838   Diameter=0.0160000002402959
   RebarID=20d   Area=0.000314000013070583   Diameter=0.0200000003003699
   RebarID=25d   Area=0.000491000020438396   Diameter=0.0250000003754623
   RebarID=26d   Area=0.000531000022103439   Diameter=0.0260000003904808
   RebarID=28d   Area=0.000616000025641654   Diameter=0.0280000004205178
   RebarID=N12   Area=0.000113000004703745   Diameter=0.0120000001802219
   RebarID=N16   Area=0.000201000008366838   Diameter=0.0160000002402959
   RebarID=N20   Area=0.000314000013070583   Diameter=0.0200000003003699
   RebarID=N24   Area=0.00045200001881498   Diameter=0.0240000003604438
   RebarID=N28   Area=0.000616000025641654   Diameter=0.0280000004205178
   RebarID=N32   Area=0.000804000033467353   Diameter=0.0320000004805918
   RebarID=N36   Area=0.00102000004245858   Diameter=0.0360000005406658
 
TABLE:  "SOLID PROPERTY DEFINITIONS"
   SolidProp=Solid1   Material=BTCT   MatAngleA=0   MatAngleB=0   MatAngleC=0   InComp=Yes   Color=Gray8Dark
 
END TABLE DATA
