File D:\ResearchLab\02_Projects\02_Projects\Tap chi XD_SFOA\code\SOO_MPJ\MPJ_Sap\SOO_Cost_W09\MPJ_9.$2k was saved on m/d/yy at h:mm:ss
 
TABLE:  "ACTIVE DEGREES OF FREEDOM"
   UX=Yes   UY=Yes   UZ=Yes   RX=Yes   RY=Yes   RZ=Yes
 
TABLE:  "ANALYSIS OPTIONS"
   Solver=Advanced   SolverProc=Auto   Force32Bit=No   StiffCase=None   GeomMod=None   HingeOpt="In Elements"   NumAThreads=0   MaxFileSize=0   NumDThreads=0   NumRThreads=0   UseMMFiles="Program Determined"   AllowDiff=No
 
TABLE:  "AREA AUTO MESH ASSIGNMENTS"
   Area=151804   MeshType="Number of Elements"   MeshGroup=ALL   Number1=3   Number2=3   LocalEdge=No   LocalFace=No   SuppEdge=No   SuppFace=No   SubMesh=No
   Area=151805   MeshType="Number of Elements"   MeshGroup=ALL   Number1=3   Number2=3   LocalEdge=No   LocalFace=No   SuppEdge=No   SuppFace=No   SubMesh=No
   Area=151806   MeshType="Number of Elements"   MeshGroup=ALL   Number1=3   Number2=3   LocalEdge=No   LocalFace=No   SuppEdge=No   SuppFace=No   SubMesh=No
   Area=151807   MeshType="Number of Elements"   MeshGroup=ALL   Number1=3   Number2=3   LocalEdge=No   LocalFace=No   SuppEdge=No   SuppFace=No   SubMesh=No
   Area=151808   MeshType="Number of Elements"   MeshGroup=ALL   Number1=3   Number2=3   LocalEdge=No   LocalFace=No   SuppEdge=No   SuppFace=No   SubMesh=No
   Area=151809   MeshType="Number of Elements"   MeshGroup=ALL   Number1=3   Number2=3   LocalEdge=No   LocalFace=No   SuppEdge=No   SuppFace=No   SubMesh=No
   Area=151810   MeshType="Number of Elements"   MeshGroup=ALL   Number1=3   Number2=3   LocalEdge=No   LocalFace=No   SuppEdge=No   SuppFace=No   SubMesh=No
   Area=151811   MeshType="Number of Elements"   MeshGroup=ALL   Number1=3   Number2=3   LocalEdge=No   LocalFace=No   SuppEdge=No   SuppFace=No   SubMesh=No
   Area=151812   MeshType="Number of Elements"   MeshGroup=ALL   Number1=3   Number2=3   LocalEdge=No   LocalFace=No   SuppEdge=No   SuppFace=No   SubMesh=No
   Area=151813   MeshType="Number of Elements"   MeshGroup=ALL   Number1=3   Number2=3   LocalEdge=No   LocalFace=No   SuppEdge=No   SuppFace=No   SubMesh=No
   Area=151814   MeshType="Number of Elements"   MeshGroup=ALL   Number1=3   Number2=3   LocalEdge=No   LocalFace=No   SuppEdge=No   SuppFace=No   SubMesh=No
   Area=151815   MeshType="Number of Elements"   MeshGroup=ALL   Number1=3   Number2=3   LocalEdge=No   LocalFace=No   SuppEdge=No   SuppFace=No   SubMesh=No
   Area=151816   MeshType="Number of Elements"   MeshGroup=ALL   Number1=3   Number2=3   LocalEdge=No   LocalFace=No   SuppEdge=No   SuppFace=No   SubMesh=No
   Area=151817   MeshType="Number of Elements"   MeshGroup=ALL   Number1=3   Number2=3   LocalEdge=No   LocalFace=No   SuppEdge=No   SuppFace=No   SubMesh=No
   Area=151818   MeshType="Number of Elements"   MeshGroup=ALL   Number1=3   Number2=3   LocalEdge=No   LocalFace=No   SuppEdge=No   SuppFace=No   SubMesh=No
   Area=151819   MeshType="Number of Elements"   MeshGroup=ALL   Number1=3   Number2=3   LocalEdge=No   LocalFace=No   SuppEdge=No   SuppFace=No   SubMesh=No
   Area=151820   MeshType="Number of Elements"   MeshGroup=ALL   Number1=3   Number2=3   LocalEdge=No   LocalFace=No   SuppEdge=No   SuppFace=No   SubMesh=No
   Area=151821   MeshType="Number of Elements"   MeshGroup=ALL   Number1=3   Number2=3   LocalEdge=No   LocalFace=No   SuppEdge=No   SuppFace=No   SubMesh=No
   Area=151822   MeshType="Number of Elements"   MeshGroup=ALL   Number1=3   Number2=3   LocalEdge=No   LocalFace=No   SuppEdge=No   SuppFace=No   SubMesh=No
   Area=151823   MeshType="Number of Elements"   MeshGroup=ALL   Number1=3   Number2=3   LocalEdge=No   LocalFace=No   SuppEdge=No   SuppFace=No   SubMesh=No
# ... 4 like lines cut
 
TABLE:  "AREA LOADS - UNIFORM"
   Area=151804   LoadPat=LL   CoordSys=GLOBAL   Dir=Gravity   UnifLoad=1.00034158457019
   Area=151805   LoadPat=LL   CoordSys=GLOBAL   Dir=Gravity   UnifLoad=1.00034158457019
   Area=151806   LoadPat=LL   CoordSys=GLOBAL   Dir=Gravity   UnifLoad=1.00034158457019
   Area=151807   LoadPat=LL   CoordSys=GLOBAL   Dir=Gravity   UnifLoad=1.00034158457019
   Area=151808   LoadPat=LL   CoordSys=GLOBAL   Dir=Gravity   UnifLoad=1.00034158457019
   Area=151809   LoadPat=LL   CoordSys=GLOBAL   Dir=Gravity   UnifLoad=1.00034158457019
   Area=151810   LoadPat=LL   CoordSys=GLOBAL   Dir=Gravity   UnifLoad=1.00034158457019
   Area=151811   LoadPat=LL   CoordSys=GLOBAL   Dir=Gravity   UnifLoad=1.00034158457019
   Area=151812   LoadPat=LL   CoordSys=GLOBAL   Dir=Gravity   UnifLoad=1.00034158457019
   Area=151813   LoadPat=LL   CoordSys=GLOBAL   Dir=Gravity   UnifLoad=1.00034158457019
   Area=151814   LoadPat=LL   CoordSys=GLOBAL   Dir=Gravity   UnifLoad=1.00034158457019
   Area=151815   LoadPat=LL   CoordSys=GLOBAL   Dir=Gravity   UnifLoad=1.00034158457019
   Area=151816   LoadPat=LL   CoordSys=GLOBAL   Dir=Gravity   UnifLoad=1.00034158457019
   Area=151817   LoadPat=LL   CoordSys=GLOBAL   Dir=Gravity   UnifLoad=1.00034158457019
   Area=151818   LoadPat=LL   CoordSys=GLOBAL   Dir=Gravity   UnifLoad=1.00034158457019
   Area=151819   LoadPat=LL   CoordSys=GLOBAL   Dir=Gravity   UnifLoad=1.00034158457019
   Area=151820   LoadPat=LL   CoordSys=GLOBAL   Dir=Gravity   UnifLoad=1.00034158457019
   Area=151821   LoadPat=LL   CoordSys=GLOBAL   Dir=Gravity   UnifLoad=1.00034158457019
   Area=151822   LoadPat=LL   CoordSys=GLOBAL   Dir=Gravity   UnifLoad=1.00034158457019
   Area=151823   LoadPat=LL   CoordSys=GLOBAL   Dir=Gravity   UnifLoad=1.00034158457019
# ... 4 like lines cut
 
TABLE:  "AREA SECTION ASSIGNMENTS"
   Area=151804   Section=Deck   MatProp=Default
   Area=151805   Section=Deck   MatProp=Default
   Area=151806   Section=Deck   MatProp=Default
   Area=151807   Section=Deck   MatProp=Default
   Area=151808   Section=Deck   MatProp=Default
   Area=151809   Section=Deck   MatProp=Default
   Area=151810   Section=Deck   MatProp=Default
   Area=151811   Section=Deck   MatProp=Default
   Area=151812   Section=Deck   MatProp=Default
   Area=151813   Section=Deck   MatProp=Default
   Area=151814   Section=Deck   MatProp=Default
   Area=151815   Section=Deck   MatProp=Default
   Area=151816   Section=Deck   MatProp=Default
   Area=151817   Section=Deck   MatProp=Default
   Area=151818   Section=Deck   MatProp=Default
   Area=151819   Section=Deck   MatProp=Default
   Area=151820   Section=Deck   MatProp=Default
   Area=151821   Section=Deck   MatProp=Default
   Area=151822   Section=Deck   MatProp=Default
   Area=151823   Section=Deck   MatProp=Default
# ... 4 like lines cut
 
TABLE:  "AREA SECTION PROPERTIES"
   Section=Deck   Material=BTCT   MatAngle=0   AreaType=Shell   Type=Shell-Thin   DrillDOF=Yes   Thickness=0.3   BendThick=0.3   Color=Green   F11Mod=1   F22Mod=1   F12Mod=1   M11Mod=1   M22Mod=1   M12Mod=1   V13Mod=1   V23Mod=1   MMod=1 _
        WMod=1   Notes="Added 24-Feb-23 16:56:47"
 
TABLE:  "AREA SECTION PROPERTY DESIGN PARAMETERS"
   Section=Deck   RebarMat=None   RebarOpt=Default
 
TABLE:  "AREA SECTION PROPERTY - TIME DEPENDENT"
   Section=Deck   TypeSize=User   AutoSFSize=1   UserValSize=0.1
 
TABLE:  "AUTO COMBINATION OPTION DATA 01 - GENERAL"
   DesignType=Concrete   AutoGen=Yes
 
TABLE:  "AUTO COMBINATION OPTION DATA 02 - USER DATA"
   DesignType=Concrete   LSType=Strength   LCName=DEAD
   DesignType=Concrete   LSType=Strength   LCName=LL
 
TABLE:  "AUTO WAVE 3 - WAVE CHARACTERISTICS - GENERAL"
   WaveChar=Default   WaveType="From Theory"   KinFactor=1   SWaterDepth=45   WaveHeight=18   WavePeriod=12   WaveTheory=Linear
 
TABLE:  "CASE - MODAL 1 - GENERAL"
   Case=MODAL   ModeType=Eigen   MaxNumModes=12   MinNumModes=1   EigenShift=0   EigenCutoff=0   EigenTol=1E-09   AutoShift=Yes
 
TABLE:  "CASE - STATIC 1 - LOAD ASSIGNMENTS"
   Case=DEAD   LoadType="Load pattern"   LoadName=DEAD   LoadSF=1
   Case=LL   LoadType="Load pattern"   LoadName=LL   LoadSF=1
 
TABLE:  "COMBINATION DEFINITIONS"
   ComboName=COMB1   ComboType="Linear Add"   AutoDesign=No   CaseName=DEAD   ScaleFactor=1   SteelDesign=None   ConcDesign=Strength   AlumDesign=None   ColdDesign=None
   ComboName=COMB2   ComboType="Linear Add"   AutoDesign=No   CaseName=DEAD   ScaleFactor=1   SteelDesign=None   ConcDesign=Strength   AlumDesign=None   ColdDesign=None
   ComboName=COMB2   CaseName=LL   ScaleFactor=1
   ComboName=BAO   ComboType=Envelope   AutoDesign=No   CaseName=COMB1   ScaleFactor=1   SteelDesign=None   ConcDesign=Strength   AlumDesign=None   ColdDesign=None
   ComboName=BAO   CaseName=COMB2   ScaleFactor=1
   ComboName=DCON1   ComboType="Linear Add"   AutoDesign=Yes   CaseName=DEAD   ScaleFactor=1.4   SteelDesign=None   ConcDesign=Strength   AlumDesign=None   ColdDesign=None   GUID=bb4fff9a-98b5-44d1-9fde-34d92700a8e9   Notes="Dead Only; Strength"
   ComboName=DCON2   ComboType="Linear Add"   AutoDesign=Yes   CaseName=DEAD   ScaleFactor=1.25   SteelDesign=None   ConcDesign=Strength   AlumDesign=None   ColdDesign=None   GUID=505bcda7-6fac-4dd0-b03e-c591d1ffc6ce   Notes="Dead + Live; Strength"
   ComboName=DCON2   CaseName=LL   ScaleFactor=1.5
 
TABLE:  "CONNECTIVITY - AREA"
   Area=151804   Joint1=444675   Joint2=444636   Joint3=444609   Joint4=444608   GUID=f3ce2ab8-d822-4512-9740-e3082de4250b
   Area=151805   Joint1=444608   Joint2=444609   Joint3=444611   Joint4=444610   GUID=be474afd-9ae4-48f2-b982-98829db0665a
   Area=151806   Joint1=444610   Joint2=444611   Joint3=444613   Joint4=444612   GUID=a0d8a08f-1d99-49c3-b41c-b522d1cd65ae
   Area=151807   Joint1=444612   Joint2=444613   Joint3=444615   Joint4=444614   GUID=6ab87f54-739a-4646-8a69-dade8beca263
   Area=151808   Joint1=444614   Joint2=444615   Joint3=444617   Joint4=444616   GUID=4bf37121-44ed-4599-ae78-b0d39f8fcf44
   Area=151809   Joint1=444616   Joint2=444617   Joint3=444619   Joint4=444618   GUID=4c15f146-c1b2-44cc-b94f-1555dfb7cc76
   Area=151810   Joint1=444618   Joint2=444619   Joint3=444621   Joint4=444620   GUID=63ccd7c5-9dc2-40ab-8a91-cbf9baf34f23
   Area=151811   Joint1=444620   Joint2=444621   Joint3=444638   Joint4=444676   GUID=caba192b-f347-48e8-a1f4-6093829cf134
   Area=151812   Joint1=444636   Joint2=444637   Joint3=444622   Joint4=444609   GUID=aaeb4405-db61-4eb5-bfe1-56496f9c3b0b
   Area=151813   Joint1=444609   Joint2=444622   Joint3=444623   Joint4=444611   GUID=51cebfc1-e4d8-4e11-ac97-87f7b8fd12a6
   Area=151814   Joint1=444611   Joint2=444623   Joint3=444624   Joint4=444613   GUID=d60ce192-cec2-4bbb-8601-f3eb7cdf1c0e
   Area=151815   Joint1=444613   Joint2=444624   Joint3=444625   Joint4=444615   GUID=81899036-8ec4-4a43-a133-829aebc2dce7
   Area=151816   Joint1=444615   Joint2=444625   Joint3=444626   Joint4=444617   GUID=2f5782a0-fa15-4903-bd32-6d8c88e2fabd
   Area=151817   Joint1=444617   Joint2=444626   Joint3=444627   Joint4=444619   GUID=ee7de407-b6e9-4ffa-82d3-4f104f477462
   Area=151818   Joint1=444619   Joint2=444627   Joint3=444628   Joint4=444621   GUID=49ca9115-67c2-45b7-8672-24baf62faff2
   Area=151819   Joint1=444621   Joint2=444628   Joint3=444639   Joint4=444638   GUID=2aad1b18-daba-49bf-91ff-04e7763c6d42
   Area=151820   Joint1=444637   Joint2=444677   Joint3=444629   Joint4=444622   GUID=c0aeb0e3-65b6-4faf-be63-ba93c6dbb88e
   Area=151821   Joint1=444622   Joint2=444629   Joint3=444630   Joint4=444623   GUID=6d16a0ef-1c26-44f4-88fc-327bc7a91e96
   Area=151822   Joint1=444623   Joint2=444630   Joint3=444631   Joint4=444624   GUID=1886ac8b-16b2-4885-a665-ea46b3debf14
   Area=151823   Joint1=444624   Joint2=444631   Joint3=444632   Joint4=444625   GUID=51ec6b48-6fdb-4375-9bde-dad74e4c5653
   Area=151824   Joint1=444625   Joint2=444632   Joint3=444633   Joint4=444626   GUID=644e1be9-361b-4cd7-851b-ed440259b3b7
   Area=151825   Joint1=444626   Joint2=444633   Joint3=444634   Joint4=444627   GUID=fb94aa43-3ab5-4138-aba3-80372fb35051
   Area=151826   Joint1=444627   Joint2=444634   Joint3=444635   Joint4=444628   GUID=f08daa04-b273-45f0-a29b-a32a2a7bb616
   Area=151827   Joint1=444628   Joint2=444635   Joint3=444678   Joint4=444639   GUID=6e54f317-1dcb-4278-9b1f-384b8a965fd7
 
TABLE:  "CONNECTIVITY - FRAME"
   Frame=497302   JointI=444608   JointJ=444609   IsCurved=No   GUID=268d5aa8-feca-45c0-b732-8ecfe798c7bc
   Frame=497303   JointI=444610   JointJ=444611   IsCurved=No   GUID=dbefd560-2108-4f07-932e-45748a7bb59c
   Frame=497304   JointI=444612   JointJ=444613   IsCurved=No   GUID=b8f47255-8f68-41fc-86ad-460534a83f93
   Frame=497305   JointI=444614   JointJ=444615   IsCurved=No   GUID=c24945c0-e3a4-44c5-af6b-53be519e33cb
   Frame=497306   JointI=444616   JointJ=444617   IsCurved=No   GUID=037c711c-078d-43c4-a2d4-a6f17ff4acab
   Frame=497307   JointI=444618   JointJ=444619   IsCurved=No   GUID=b133c357-06a7-486c-9a99-dbb9c9af2d70
   Frame=497308   JointI=444620   JointJ=444621   IsCurved=No   GUID=7b4ffa32-5331-4142-a5f1-a11c312cfa09
   Frame=497309   JointI=444609   JointJ=444622   IsCurved=No   GUID=e98bf17a-e207-4cb5-95f6-828d4b1909b0
   Frame=497310   JointI=444611   JointJ=444623   IsCurved=No   GUID=50c8ca2e-5bca-43f0-a581-0592a39cf48a
   Frame=497311   JointI=444613   JointJ=444624   IsCurved=No   GUID=d303f06a-9949-4749-8997-54a1553e558c
   Frame=497312   JointI=444615   JointJ=444625   IsCurved=No   GUID=44fadf45-7232-487d-829c-c4854d89cfd8
   Frame=497313   JointI=444617   JointJ=444626   IsCurved=No   GUID=54e8048a-3623-40d1-85f3-94ca533df252
   Frame=497314   JointI=444619   JointJ=444627   IsCurved=No   GUID=e2f059ba-04b4-432e-9f1c-9cc4529e3c9d
   Frame=497315   JointI=444621   JointJ=444628   IsCurved=No   GUID=80d66365-d076-4a05-8987-97d0b3616c97
   Frame=497316   JointI=444622   JointJ=444629   IsCurved=No   GUID=516af42e-7f3c-4511-808c-dcea68d48cd9
   Frame=497317   JointI=444623   JointJ=444630   IsCurved=No   GUID=b1f9fc81-63e4-4d9b-9631-057c822d898d
   Frame=497318   JointI=444624   JointJ=444631   IsCurved=No   GUID=650f21f8-5ce4-4d34-ae35-b3a526b05d52
   Frame=497319   JointI=444625   JointJ=444632   IsCurved=No   GUID=86af02a2-3aff-42e0-9e8e-1525dc2f495b
   Frame=497320   JointI=444626   JointJ=444633   IsCurved=No   GUID=b22b8730-b7f9-4cd9-95e8-2f108f0c048d
   Frame=497321   JointI=444627   JointJ=444634   IsCurved=No   GUID=af5373f8-4a39-468a-81c0-c1de789b2a74
   Frame=497322   JointI=444628   JointJ=444635   IsCurved=No   GUID=8414e75c-d918-40e3-9f50-1a799c44f769
   Frame=497323   JointI=444636   JointJ=444609   IsCurved=No   GUID=cc74e758-2f3c-4a95-a535-a88cd3adc6f9
   Frame=497324   JointI=444637   JointJ=444622   IsCurved=No   GUID=04b25243-f578-406b-a6ce-bcf1fca11e88
   Frame=497325   JointI=444609   JointJ=444611   IsCurved=No   GUID=2f4ddef1-a521-443c-bf5e-b313c6ca5978
   Frame=497326   JointI=444622   JointJ=444623   IsCurved=No   GUID=dd447323-3cad-42b2-9f5f-8bd4ba7d69fb
   Frame=497327   JointI=444611   JointJ=444613   IsCurved=No   GUID=1b5493d6-4b02-444d-b35b-6d79563d8e1c
   Frame=497328   JointI=444623   JointJ=444624   IsCurved=No   GUID=64f30e09-e251-49b0-bb5b-56481a447f20
   Frame=497329   JointI=444613   JointJ=444615   IsCurved=No   GUID=078c2192-1b2e-4725-a8ee-0b2844c7bf02
   Frame=497330   JointI=444624   JointJ=444625   IsCurved=No   GUID=c33d1fa4-8edb-4a23-ab14-ea123b76abdd
   Frame=497331   JointI=444615   JointJ=444617   IsCurved=No   GUID=1b4abb3c-03ad-494a-affc-1a8fb940ce1e
   Frame=497332   JointI=444625   JointJ=444626   IsCurved=No   GUID=b2b1f40d-06d9-41d6-a290-26360a56d655
   Frame=497333   JointI=444617   JointJ=444619   IsCurved=No   GUID=8d87a166-100b-44cd-984a-ee7ac4b1bbc5
   Frame=497334   JointI=444626   JointJ=444627   IsCurved=No   GUID=5b9ba19f-7529-4fb2-a754-d742ad247516
   Frame=497335   JointI=444619   JointJ=444621   IsCurved=No   GUID=acc4be94-6c67-4c12-a154-4395f10037c8
   Frame=497336   JointI=444627   JointJ=444628   IsCurved=No   GUID=70254c0f-b8de-4d75-ab0f-361a096890dc
   Frame=497337   JointI=444621   JointJ=444638   IsCurved=No   GUID=3a524f21-fb5d-4e0b-a35a-31b521293f5e
   Frame=497338   JointI=444628   JointJ=444639   IsCurved=No   GUID=9fb926db-e2b0-4ef0-937f-031f118b608b
   Frame=497339   JointI=444609   JointJ=444640   IsCurved=No   GUID=9ddbbc91-7fe9-4b1e-9f50-64a307b8ae85
   Frame=497340   JointI=444640   JointJ=444641   IsCurved=No   GUID=8d2e7370-5187-4729-b2e4-2ceee3a07b9a
   Frame=497341   JointI=444641   JointJ=444642   IsCurved=No   GUID=1d940fb1-7f77-4ec4-866f-ee54e7a887e5
   Frame=497342   JointI=444611   JointJ=444643   IsCurved=No   GUID=75dde29d-3439-4e24-abd4-c61584f57ef7
   Frame=497343   JointI=444643   JointJ=444644   IsCurved=No   GUID=51e6e00a-259a-431d-ac7f-48f41f1b038f
   Frame=497344   JointI=444644   JointJ=444645   IsCurved=No   GUID=61340557-911f-4a6e-99b6-72ed92c66737
   Frame=497345   JointI=444613   JointJ=444646   IsCurved=No   GUID=6af9196f-32f2-4f7f-879b-0a4696e794d2
   Frame=497346   JointI=444646   JointJ=444647   IsCurved=No   GUID=4601f151-5683-4da5-84be-b0b7fb2d4a08
   Frame=497347   JointI=444647   JointJ=444648   IsCurved=No   GUID=4c87acd0-8432-4826-bf7f-7307bca327e0
   Frame=497348   JointI=444615   JointJ=444649   IsCurved=No   GUID=2aa034f9-ce86-4173-9b64-1b67fa48183e
   Frame=497349   JointI=444649   JointJ=444650   IsCurved=No   GUID=c59af2cb-a85a-4522-a5b3-acfaa6c4a776
   Frame=497350   JointI=444650   JointJ=444651   IsCurved=No   GUID=e3faf9fe-960d-4a7c-b957-a7fa9f31f119
   Frame=497351   JointI=444617   JointJ=444652   IsCurved=No   GUID=f7e30580-8900-4a5d-bf76-183c75338398
   Frame=497352   JointI=444652   JointJ=444653   IsCurved=No   GUID=2dd8982e-edd0-4020-9b5b-3821bfa3cee3
   Frame=497353   JointI=444653   JointJ=444654   IsCurved=No   GUID=b8571a5e-8f82-4746-b1d9-4239bb61383f
   Frame=497354   JointI=444619   JointJ=444655   IsCurved=No   GUID=a6bfe529-3d77-4e77-8fab-3c4f657c0c63
   Frame=497355   JointI=444655   JointJ=444656   IsCurved=No   GUID=91b57e62-6d70-42de-b3b7-c7df80a3c2d1
   Frame=497356   JointI=444656   JointJ=444657   IsCurved=No   GUID=29066612-6389-4cd9-acc2-6445acb4912e
   Frame=497357   JointI=444621   JointJ=444658   IsCurved=No   GUID=2f00c1e2-5a6a-4bca-96e4-4ba8ee2f3632
   Frame=497358   JointI=444658   JointJ=444659   IsCurved=No   GUID=c883606a-2bc4-41f2-a69d-894c43a6a27a
   Frame=497359   JointI=444659   JointJ=444660   IsCurved=No   GUID=d9b6a075-4496-4c41-b652-dab7813a72a3
   Frame=497360   JointI=444622   JointJ=444661   IsCurved=No   GUID=6216ce82-6f5a-4b16-ae3f-e4995949f757
   Frame=497361   JointI=444661   JointJ=444662   IsCurved=No   GUID=d4895b22-87b8-4641-aad3-920340b2b7d0
   Frame=497362   JointI=444623   JointJ=444663   IsCurved=No   GUID=8a011453-ce67-441e-a801-37f585729802
   Frame=497363   JointI=444663   JointJ=444664   IsCurved=No   GUID=922646f9-6801-4ad9-9df9-6e35cdf53ce7
   Frame=497364   JointI=444624   JointJ=444665   IsCurved=No   GUID=d29a1a4f-8cc2-48b9-b0f0-9ee635714b61
   Frame=497365   JointI=444665   JointJ=444666   IsCurved=No   GUID=2c3c89c6-013d-4696-829c-cd952f8fd125
   Frame=497366   JointI=444625   JointJ=444667   IsCurved=No   GUID=d46bddc3-f0f4-493c-adfd-a07bc84f6f7f
   Frame=497367   JointI=444667   JointJ=444668   IsCurved=No   GUID=c3e6c572-a4a6-42e9-b002-8c19ba8cc894
   Frame=497368   JointI=444626   JointJ=444669   IsCurved=No   GUID=b705591e-61a6-43c5-b328-09a8cb255bf1
   Frame=497369   JointI=444669   JointJ=444670   IsCurved=No   GUID=608201f7-c34b-4258-a9ac-899baf05835e
   Frame=497370   JointI=444627   JointJ=444671   IsCurved=No   GUID=728ea024-d2a0-44a8-8dce-2cb0fbce0276
   Frame=497371   JointI=444671   JointJ=444672   IsCurved=No   GUID=6d127b23-8310-4d86-a1cd-036b538789ab
   Frame=497372   JointI=444628   JointJ=444673   IsCurved=No   GUID=eb991bd8-7218-41c2-9891-9ce7f757102e
   Frame=497373   JointI=444673   JointJ=444674   IsCurved=No   GUID=57167b94-f2b5-46b4-b9ca-9122988e8af5
   Frame=497374   JointI=444640   JointJ=444643   IsCurved=No   GUID=9c9e128b-5e26-4351-a404-da513f7b6ac0
   Frame=497375   JointI=444643   JointJ=444646   IsCurved=No   GUID=fbd87085-da2f-406e-a7bf-910851d2f94e
   Frame=497376   JointI=444646   JointJ=444649   IsCurved=No   GUID=3f3318d0-0be8-4a05-a2cf-1cf20812385f
   Frame=497377   JointI=444649   JointJ=444652   IsCurved=No   GUID=859c70b4-899c-4aad-b5b9-243e979c8e47
   Frame=497378   JointI=444652   JointJ=444655   IsCurved=No   GUID=f5048050-1aa9-4400-b5f4-1db9495703f9
   Frame=497379   JointI=444655   JointJ=444658   IsCurved=No   GUID=e53ddb26-e4ed-476a-a233-7aad822c0137
 
TABLE:  "COORDINATE SYSTEMS"
   Name=GLOBAL   Type=Cartesian   X=0   Y=0   Z=0   AboutZ=0   AboutY=0   AboutX=0
 
TABLE:  "DATABASE DOCUMENTATION"
 
TABLE:  "DATABASE FORMAT TYPES"
   UnitsCurr=Yes   OverrideE=No
 
TABLE:  "FRAME AUTO MESH ASSIGNMENTS"
   Frame=497302   AutoMesh=Yes   AtJoints=Yes   AtFrames=No   NumSegments=0   MaxLength=0   MaxDegrees=0
   Frame=497303   AutoMesh=Yes   AtJoints=Yes   AtFrames=No   NumSegments=0   MaxLength=0   MaxDegrees=0
   Frame=497304   AutoMesh=Yes   AtJoints=Yes   AtFrames=No   NumSegments=0   MaxLength=0   MaxDegrees=0
   Frame=497305   AutoMesh=Yes   AtJoints=Yes   AtFrames=No   NumSegments=0   MaxLength=0   MaxDegrees=0
   Frame=497306   AutoMesh=Yes   AtJoints=Yes   AtFrames=No   NumSegments=0   MaxLength=0   MaxDegrees=0
   Frame=497307   AutoMesh=Yes   AtJoints=Yes   AtFrames=No   NumSegments=0   MaxLength=0   MaxDegrees=0
   Frame=497308   AutoMesh=Yes   AtJoints=Yes   AtFrames=No   NumSegments=0   MaxLength=0   MaxDegrees=0
   Frame=497309   AutoMesh=Yes   AtJoints=Yes   AtFrames=No   NumSegments=0   MaxLength=0   MaxDegrees=0
   Frame=497310   AutoMesh=Yes   AtJoints=Yes   AtFrames=No   NumSegments=0   MaxLength=0   MaxDegrees=0
   Frame=497311   AutoMesh=Yes   AtJoints=Yes   AtFrames=No   NumSegments=0   MaxLength=0   MaxDegrees=0
   Frame=497312   AutoMesh=Yes   AtJoints=Yes   AtFrames=No   NumSegments=0   MaxLength=0   MaxDegrees=0
   Frame=497313   AutoMesh=Yes   AtJoints=Yes   AtFrames=No   NumSegments=0   MaxLength=0   MaxDegrees=0
   Frame=497314   AutoMesh=Yes   AtJoints=Yes   AtFrames=No   NumSegments=0   MaxLength=0   MaxDegrees=0
   Frame=497315   AutoMesh=Yes   AtJoints=Yes   AtFrames=No   NumSegments=0   MaxLength=0   MaxDegrees=0
   Frame=497316   AutoMesh=Yes   AtJoints=Yes   AtFrames=No   NumSegments=0   MaxLength=0   MaxDegrees=0
   Frame=497317   AutoMesh=Yes   AtJoints=Yes   AtFrames=No   NumSegments=0   MaxLength=0   MaxDegrees=0
   Frame=497318   AutoMesh=Yes   AtJoints=Yes   AtFrames=No   NumSegments=0   MaxLength=0   MaxDegrees=0
   Frame=497319   AutoMesh=Yes   AtJoints=Yes   AtFrames=No   NumSegments=0   MaxLength=0   MaxDegrees=0
   Frame=497320   AutoMesh=Yes   AtJoints=Yes   AtFrames=No   NumSegments=0   MaxLength=0   MaxDegrees=0
   Frame=497321   AutoMesh=Yes   AtJoints=Yes   AtFrames=No   NumSegments=0   MaxLength=0   MaxDegrees=0
# ... 58 like lines cut
 
TABLE:  "FRAME DESIGN PROCEDURES"
   Frame=497302   DesignProc="From Material"
   Frame=497303   DesignProc="From Material"
   Frame=497304   DesignProc="From Material"
   Frame=497305   DesignProc="From Material"
   Frame=497306   DesignProc="From Material"
   Frame=497307   DesignProc="From Material"
   Frame=497308   DesignProc="From Material"
   Frame=497309   DesignProc="From Material"
   Frame=497310   DesignProc="From Material"
   Frame=497311   DesignProc="From Material"
   Frame=497312   DesignProc="From Material"
   Frame=497313   DesignProc="From Material"
   Frame=497314   DesignProc="From Material"
   Frame=497315   DesignProc="From Material"
   Frame=497316   DesignProc="From Material"
   Frame=497317   DesignProc="From Material"
   Frame=497318   DesignProc="From Material"
   Frame=497319   DesignProc="From Material"
   Frame=497320   DesignProc="From Material"
   Frame=497321   DesignProc="From Material"
# ... 18 like lines cut
   Frame=497340   DesignProc="No Design"
   Frame=497341   DesignProc="No Design"
   Frame=497342   DesignProc="From Material"
   Frame=497343   DesignProc="No Design"
   Frame=497344   DesignProc="No Design"
   Frame=497345   DesignProc="From Material"
   Frame=497346   DesignProc="No Design"
   Frame=497347   DesignProc="No Design"
   Frame=497348   DesignProc="From Material"
   Frame=497349   DesignProc="No Design"
   Frame=497350   DesignProc="No Design"
   Frame=497351   DesignProc="From Material"
   Frame=497352   DesignProc="No Design"
   Frame=497353   DesignProc="No Design"
   Frame=497354   DesignProc="From Material"
   Frame=497355   DesignProc="No Design"
   Frame=497356   DesignProc="No Design"
   Frame=497357   DesignProc="From Material"
   Frame=497358   DesignProc="No Design"
   Frame=497359   DesignProc="No Design"
   Frame=497360   DesignProc="No Design"
   Frame=497361   DesignProc="No Design"
   Frame=497362   DesignProc="No Design"
   Frame=497363   DesignProc="No Design"
   Frame=497364   DesignProc="No Design"
   Frame=497365   DesignProc="No Design"
   Frame=497366   DesignProc="No Design"
   Frame=497367   DesignProc="No Design"
   Frame=497368   DesignProc="No Design"
   Frame=497369   DesignProc="No Design"
   Frame=497370   DesignProc="No Design"
   Frame=497371   DesignProc="No Design"
   Frame=497372   DesignProc="No Design"
   Frame=497373   DesignProc="No Design"
   Frame=497374   DesignProc="From Material"
   Frame=497375   DesignProc="From Material"
   Frame=497376   DesignProc="From Material"
   Frame=497377   DesignProc="From Material"
   Frame=497378   DesignProc="From Material"
   Frame=497379   DesignProc="From Material"
 
TABLE:  "FRAME LOAD TRANSFER OPTIONS"
   Frame=497302   Transfer=Yes
   Frame=497303   Transfer=Yes
   Frame=497304   Transfer=Yes
   Frame=497305   Transfer=Yes
   Frame=497306   Transfer=Yes
   Frame=497307   Transfer=Yes
   Frame=497308   Transfer=Yes
   Frame=497309   Transfer=Yes
   Frame=497310   Transfer=Yes
   Frame=497311   Transfer=Yes
   Frame=497312   Transfer=Yes
   Frame=497313   Transfer=Yes
   Frame=497314   Transfer=Yes
   Frame=497315   Transfer=Yes
   Frame=497316   Transfer=Yes
   Frame=497317   Transfer=Yes
   Frame=497318   Transfer=Yes
   Frame=497319   Transfer=Yes
   Frame=497320   Transfer=Yes
   Frame=497321   Transfer=Yes
# ... 58 like lines cut
 
TABLE:  "FRAME LOCAL AXES ASSIGNMENTS 1 - TYPICAL"
   Frame=497339   Angle=90
   Frame=497342   Angle=90
   Frame=497345   Angle=90
   Frame=497348   Angle=90
   Frame=497351   Angle=90
   Frame=497354   Angle=90
   Frame=497357   Angle=90
 
TABLE:  "FRAME OUTPUT STATION ASSIGNMENTS"
   Frame=497302   StationType=MaxStaSpcg   MaxStaSpcg=0.5   AddAtElmInt=Yes   AddAtPtLoad=Yes
   Frame=497303   StationType=MaxStaSpcg   MaxStaSpcg=0.5   AddAtElmInt=Yes   AddAtPtLoad=Yes
   Frame=497304   StationType=MaxStaSpcg   MaxStaSpcg=0.5   AddAtElmInt=Yes   AddAtPtLoad=Yes
   Frame=497305   StationType=MaxStaSpcg   MaxStaSpcg=0.5   AddAtElmInt=Yes   AddAtPtLoad=Yes
   Frame=497306   StationType=MaxStaSpcg   MaxStaSpcg=0.5   AddAtElmInt=Yes   AddAtPtLoad=Yes
   Frame=497307   StationType=MaxStaSpcg   MaxStaSpcg=0.5   AddAtElmInt=Yes   AddAtPtLoad=Yes
   Frame=497308   StationType=MaxStaSpcg   MaxStaSpcg=0.5   AddAtElmInt=Yes   AddAtPtLoad=Yes
   Frame=497309   StationType=MaxStaSpcg   MaxStaSpcg=0.5   AddAtElmInt=Yes   AddAtPtLoad=Yes
   Frame=497310   StationType=MaxStaSpcg   MaxStaSpcg=0.5   AddAtElmInt=Yes   AddAtPtLoad=Yes
   Frame=497311   StationType=MaxStaSpcg   MaxStaSpcg=0.5   AddAtElmInt=Yes   AddAtPtLoad=Yes
   Frame=497312   StationType=MaxStaSpcg   MaxStaSpcg=0.5   AddAtElmInt=Yes   AddAtPtLoad=Yes
   Frame=497313   StationType=MaxStaSpcg   MaxStaSpcg=0.5   AddAtElmInt=Yes   AddAtPtLoad=Yes
   Frame=497314   StationType=MaxStaSpcg   MaxStaSpcg=0.5   AddAtElmInt=Yes   AddAtPtLoad=Yes
   Frame=497315   StationType=MaxStaSpcg   MaxStaSpcg=0.5   AddAtElmInt=Yes   AddAtPtLoad=Yes
   Frame=497316   StationType=MaxStaSpcg   MaxStaSpcg=0.5   AddAtElmInt=Yes   AddAtPtLoad=Yes
   Frame=497317   StationType=MaxStaSpcg   MaxStaSpcg=0.5   AddAtElmInt=Yes   AddAtPtLoad=Yes
   Frame=497318   StationType=MaxStaSpcg   MaxStaSpcg=0.5   AddAtElmInt=Yes   AddAtPtLoad=Yes
   Frame=497319   StationType=MaxStaSpcg   MaxStaSpcg=0.5   AddAtElmInt=Yes   AddAtPtLoad=Yes
   Frame=497320   StationType=MaxStaSpcg   MaxStaSpcg=0.5   AddAtElmInt=Yes   AddAtPtLoad=Yes
   Frame=497321   StationType=MaxStaSpcg   MaxStaSpcg=0.5   AddAtElmInt=Yes   AddAtPtLoad=Yes
# ... 17 like lines cut
   Frame=497339   StationType=MinNumSta   MinNumSta=3   AddAtElmInt=Yes   AddAtPtLoad=Yes
   Frame=497340   StationType=MinNumSta   MinNumSta=3   AddAtElmInt=Yes   AddAtPtLoad=Yes
   Frame=497341   StationType=MinNumSta   MinNumSta=3   AddAtElmInt=Yes   AddAtPtLoad=Yes
   Frame=497342   StationType=MinNumSta   MinNumSta=3   AddAtElmInt=Yes   AddAtPtLoad=Yes
   Frame=497343   StationType=MinNumSta   MinNumSta=3   AddAtElmInt=Yes   AddAtPtLoad=Yes
   Frame=497344   StationType=MinNumSta   MinNumSta=3   AddAtElmInt=Yes   AddAtPtLoad=Yes
   Frame=497345   StationType=MinNumSta   MinNumSta=3   AddAtElmInt=Yes   AddAtPtLoad=Yes
   Frame=497346   StationType=MinNumSta   MinNumSta=3   AddAtElmInt=Yes   AddAtPtLoad=Yes
   Frame=497347   StationType=MinNumSta   MinNumSta=3   AddAtElmInt=Yes   AddAtPtLoad=Yes
   Frame=497348   StationType=MinNumSta   MinNumSta=3   AddAtElmInt=Yes   AddAtPtLoad=Yes
   Frame=497349   StationType=MinNumSta   MinNumSta=3   AddAtElmInt=Yes   AddAtPtLoad=Yes
   Frame=497350   StationType=MinNumSta   MinNumSta=3   AddAtElmInt=Yes   AddAtPtLoad=Yes
   Frame=497351   StationType=MinNumSta   MinNumSta=3   AddAtElmInt=Yes   AddAtPtLoad=Yes
   Frame=497352   StationType=MinNumSta   MinNumSta=3   AddAtElmInt=Yes   AddAtPtLoad=Yes
   Frame=497353   StationType=MinNumSta   MinNumSta=3   AddAtElmInt=Yes   AddAtPtLoad=Yes
   Frame=497354   StationType=MinNumSta   MinNumSta=3   AddAtElmInt=Yes   AddAtPtLoad=Yes
   Frame=497355   StationType=MinNumSta   MinNumSta=3   AddAtElmInt=Yes   AddAtPtLoad=Yes
   Frame=497356   StationType=MinNumSta   MinNumSta=3   AddAtElmInt=Yes   AddAtPtLoad=Yes
   Frame=497357   StationType=MinNumSta   MinNumSta=3   AddAtElmInt=Yes   AddAtPtLoad=Yes
   Frame=497358   StationType=MinNumSta   MinNumSta=3   AddAtElmInt=Yes   AddAtPtLoad=Yes
# ... 15 like lines cut
   Frame=497374   StationType=MaxStaSpcg   MaxStaSpcg=0.5   AddAtElmInt=Yes   AddAtPtLoad=Yes
   Frame=497375   StationType=MaxStaSpcg   MaxStaSpcg=0.5   AddAtElmInt=Yes   AddAtPtLoad=Yes
   Frame=497376   StationType=MaxStaSpcg   MaxStaSpcg=0.5   AddAtElmInt=Yes   AddAtPtLoad=Yes
   Frame=497377   StationType=MaxStaSpcg   MaxStaSpcg=0.5   AddAtElmInt=Yes   AddAtPtLoad=Yes
   Frame=497378   StationType=MaxStaSpcg   MaxStaSpcg=0.5   AddAtElmInt=Yes   AddAtPtLoad=Yes
   Frame=497379   StationType=MaxStaSpcg   MaxStaSpcg=0.5   AddAtElmInt=Yes   AddAtPtLoad=Yes
 
TABLE:  "FRAME SECTION ASSIGNMENTS"
   Frame=497302   AutoSelect=N.A.   AnalSect=TB   MatProp=Default
   Frame=497303   AutoSelect=N.A.   AnalSect=TB   MatProp=Default
   Frame=497304   AutoSelect=N.A.   AnalSect=TB   MatProp=Default
   Frame=497305   AutoSelect=N.A.   AnalSect=TB   MatProp=Default
   Frame=497306   AutoSelect=N.A.   AnalSect=TB   MatProp=Default
   Frame=497307   AutoSelect=N.A.   AnalSect=TB   MatProp=Default
   Frame=497308   AutoSelect=N.A.   AnalSect=TB   MatProp=Default
   Frame=497309   AutoSelect=N.A.   AnalSect=TB   MatProp=Default
   Frame=497310   AutoSelect=N.A.   AnalSect=TB   MatProp=Default
   Frame=497311   AutoSelect=N.A.   AnalSect=TB   MatProp=Default
   Frame=497312   AutoSelect=N.A.   AnalSect=TB   MatProp=Default
   Frame=497313   AutoSelect=N.A.   AnalSect=TB   MatProp=Default
   Frame=497314   AutoSelect=N.A.   AnalSect=TB   MatProp=Default
   Frame=497315   AutoSelect=N.A.   AnalSect=TB   MatProp=Default
   Frame=497316   AutoSelect=N.A.   AnalSect=TB   MatProp=Default
   Frame=497317   AutoSelect=N.A.   AnalSect=TB   MatProp=Default
   Frame=497318   AutoSelect=N.A.   AnalSect=TB   MatProp=Default
   Frame=497319   AutoSelect=N.A.   AnalSect=TB   MatProp=Default
   Frame=497320   AutoSelect=N.A.   AnalSect=TB   MatProp=Default
   Frame=497321   AutoSelect=N.A.   AnalSect=TB   MatProp=Default
   Frame=497322   AutoSelect=N.A.   AnalSect=TB   MatProp=Default
   Frame=497323   AutoSelect=N.A.   AnalSect=LB   MatProp=Default
   Frame=497324   AutoSelect=N.A.   AnalSect=LB   MatProp=Default
   Frame=497325   AutoSelect=N.A.   AnalSect=LB   MatProp=Default
   Frame=497326   AutoSelect=N.A.   AnalSect=LB   MatProp=Default
   Frame=497327   AutoSelect=N.A.   AnalSect=LB   MatProp=Default
   Frame=497328   AutoSelect=N.A.   AnalSect=LB   MatProp=Default
   Frame=497329   AutoSelect=N.A.   AnalSect=LB   MatProp=Default
   Frame=497330   AutoSelect=N.A.   AnalSect=LB   MatProp=Default
   Frame=497331   AutoSelect=N.A.   AnalSect=LB   MatProp=Default
   Frame=497332   AutoSelect=N.A.   AnalSect=LB   MatProp=Default
   Frame=497333   AutoSelect=N.A.   AnalSect=LB   MatProp=Default
   Frame=497334   AutoSelect=N.A.   AnalSect=LB   MatProp=Default
   Frame=497335   AutoSelect=N.A.   AnalSect=LB   MatProp=Default
   Frame=497336   AutoSelect=N.A.   AnalSect=LB   MatProp=Default
   Frame=497337   AutoSelect=N.A.   AnalSect=LB   MatProp=Default
   Frame=497338   AutoSelect=N.A.   AnalSect=LB   MatProp=Default
   Frame=497339   AutoSelect=N.A.   AnalSect=EB   MatProp=Default
   Frame=497340   AutoSelect=N.A.   AnalSect=Piles   MatProp=Default
   Frame=497341   AutoSelect=N.A.   AnalSect=Piles   MatProp=Default
   Frame=497342   AutoSelect=N.A.   AnalSect=EB   MatProp=Default
   Frame=497343   AutoSelect=N.A.   AnalSect=Piles   MatProp=Default
   Frame=497344   AutoSelect=N.A.   AnalSect=Piles   MatProp=Default
   Frame=497345   AutoSelect=N.A.   AnalSect=EB   MatProp=Default
   Frame=497346   AutoSelect=N.A.   AnalSect=Piles   MatProp=Default
   Frame=497347   AutoSelect=N.A.   AnalSect=Piles   MatProp=Default
   Frame=497348   AutoSelect=N.A.   AnalSect=EB   MatProp=Default
   Frame=497349   AutoSelect=N.A.   AnalSect=Piles   MatProp=Default
   Frame=497350   AutoSelect=N.A.   AnalSect=Piles   MatProp=Default
   Frame=497351   AutoSelect=N.A.   AnalSect=EB   MatProp=Default
   Frame=497352   AutoSelect=N.A.   AnalSect=Piles   MatProp=Default
   Frame=497353   AutoSelect=N.A.   AnalSect=Piles   MatProp=Default
   Frame=497354   AutoSelect=N.A.   AnalSect=EB   MatProp=Default
   Frame=497355   AutoSelect=N.A.   AnalSect=Piles   MatProp=Default
   Frame=497356   AutoSelect=N.A.   AnalSect=Piles   MatProp=Default
   Frame=497357   AutoSelect=N.A.   AnalSect=EB   MatProp=Default
   Frame=497358   AutoSelect=N.A.   AnalSect=Piles   MatProp=Default
   Frame=497359   AutoSelect=N.A.   AnalSect=Piles   MatProp=Default
   Frame=497360   AutoSelect=N.A.   AnalSect=Piles   MatProp=Default
   Frame=497361   AutoSelect=N.A.   AnalSect=Piles   MatProp=Default
   Frame=497362   AutoSelect=N.A.   AnalSect=Piles   MatProp=Default
   Frame=497363   AutoSelect=N.A.   AnalSect=Piles   MatProp=Default
   Frame=497364   AutoSelect=N.A.   AnalSect=Piles   MatProp=Default
   Frame=497365   AutoSelect=N.A.   AnalSect=Piles   MatProp=Default
   Frame=497366   AutoSelect=N.A.   AnalSect=Piles   MatProp=Default
   Frame=497367   AutoSelect=N.A.   AnalSect=Piles   MatProp=Default
   Frame=497368   AutoSelect=N.A.   AnalSect=Piles   MatProp=Default
   Frame=497369   AutoSelect=N.A.   AnalSect=Piles   MatProp=Default
   Frame=497370   AutoSelect=N.A.   AnalSect=Piles   MatProp=Default
   Frame=497371   AutoSelect=N.A.   AnalSect=Piles   MatProp=Default
   Frame=497372   AutoSelect=N.A.   AnalSect=Piles   MatProp=Default
   Frame=497373   AutoSelect=N.A.   AnalSect=Piles   MatProp=Default
   Frame=497374   AutoSelect=N.A.   AnalSect=EB-1   MatProp=Default
   Frame=497375   AutoSelect=N.A.   AnalSect=EB-1   MatProp=Default
   Frame=497376   AutoSelect=N.A.   AnalSect=EB-1   MatProp=Default
   Frame=497377   AutoSelect=N.A.   AnalSect=EB-1   MatProp=Default
   Frame=497378   AutoSelect=N.A.   AnalSect=EB-1   MatProp=Default
   Frame=497379   AutoSelect=N.A.   AnalSect=EB-1   MatProp=Default
 
TABLE:  "FRAME SECTION PROPERTIES 01 - GENERAL"
   SectionName=EB   Material=BTCT   Shape=Rectangular   t3=1.2   t2=0.5   Area=0.6   TorsConst=0.0369079665195795   I33=0.072   I22=0.0125   I23=0   AS2=0.5   AS3=0.5   S33Top=0.12   S33Bot=0.12   S22Left=0.05   S22Right=0.05   Z33=0.18 _
        Z22=0.075   R33=0.346410161513775   R22=0.144337567297406   CGOffset3=0   CGOffset2=0   EccV2=0   EccV3=0   Cw=0   Color=Cyan   FromFile=No   AMod=1   A2Mod=1   A3Mod=1   JMod=1   I2Mod=1   I3Mod=1   MMod=1   WMod=1
   SectionName=EB-1   Material=BTCT   Shape=Rectangular   t3=0.5   t2=0.5   Area=0.25   TorsConst=0.00880208333333333   I33=0.00520833333333333   I22=0.00520833333333333   I23=0   AS2=0.208333333333333   AS3=0.208333333333333 _
        S33Top=0.0208333333333333   S33Bot=0.0208333333333333   S22Left=0.0208333333333333   S22Right=0.0208333333333333   Z33=0.03125   Z22=0.03125   R33=0.144337567297406   R22=0.144337567297406   CGOffset3=0   CGOffset2=0   EccV2=0 _
        EccV3=0   Cw=0   Color=Red   FromFile=No   AMod=1   A2Mod=1   A3Mod=1   JMod=1   I2Mod=1   I3Mod=1   MMod=1   WMod=1
   SectionName=LB   Material=BTCT   Shape=Rectangular   t3=0.5   t2=0.5   Area=0.25   TorsConst=0.00880208333333333   I33=0.00520833333333333   I22=0.00520833333333333   I23=0   AS2=0.208333333333333   AS3=0.208333333333333 _
        S33Top=0.0208333333333333   S33Bot=0.0208333333333333   S22Left=0.0208333333333333   S22Right=0.0208333333333333   Z33=0.03125   Z22=0.03125   R33=0.144337567297406   R22=0.144337567297406   CGOffset3=0   CGOffset2=0   EccV2=0 _
        EccV3=0   Cw=0   Color=Green   FromFile=No   AMod=1   A2Mod=1   A3Mod=1   JMod=1   I2Mod=1   I3Mod=1   MMod=1   WMod=1
   SectionName=Piles   Material=BTCTCOC   Shape=Pipe   t3=0.3   tw=0.06   Area=0.045238934211693   TorsConst=0.000692155693438903   I33=0.000346077846719452   I22=0.000346077846719452   I23=0   AS2=0.0235427106611872 _
        AS3=0.0235427106611872   S33Top=0.00230718564479634   S33Bot=0.00230718564479634   S22Left=0.00230718564479634   S22Right=0.00230718564479634   Z33=0.003528   Z22=0.003528   R33=0.0874642784226795   R22=0.0874642784226795 _
        CGOffset3=0   CGOffset2=0   EccV2=0   EccV3=0   Cw=0   Color=Magenta   FromFile=No   AMod=1   A2Mod=1   A3Mod=1   JMod=1   I2Mod=1   I3Mod=1   MMod=1   WMod=1
   SectionName=TB   Material=BTCT   Shape=Rectangular   t3=0.5   t2=0.5   Area=0.25   TorsConst=0.00880208333333333   I33=0.00520833333333333   I22=0.00520833333333333   I23=0   AS2=0.208333333333333   AS3=0.208333333333333 _
        S33Top=0.0208333333333333   S33Bot=0.0208333333333333   S22Left=0.0208333333333333   S22Right=0.0208333333333333   Z33=0.03125   Z22=0.03125   R33=0.144337567297406   R22=0.144337567297406   CGOffset3=0   CGOffset2=0   EccV2=0 _
        EccV3=0   Cw=0   Color=Blue   FromFile=No   AMod=1   A2Mod=1   A3Mod=1   JMod=1   I2Mod=1   I3Mod=1   MMod=1   WMod=1
 
TABLE:  "FRAME SECTION PROPERTIES 02 - CONCRETE COLUMN"
   SectionName=EB   RebarMatL=A706   RebarMatC=A706   ReinfConfig=Rectangular   LatReinf=Ties   Cover=0.05   NumBars3Dir=2   NumBars2Dir=2   BarSizeL=12d   BarSizeC=10d   SpacingC=0.1   NumCBars2=2   NumCBars3=2   ReinfType=Design
   SectionName=EB-1   RebarMatL=A706   RebarMatC=A706   ReinfConfig=Rectangular   LatReinf=Ties   Cover=0.05   NumBars3Dir=2   NumBars2Dir=2   BarSizeL=12d   BarSizeC=10d   SpacingC=0.1   NumCBars2=2   NumCBars3=2   ReinfType=Design
   SectionName=LB   RebarMatL=A706   RebarMatC=A706   ReinfConfig=Rectangular   LatReinf=Ties   Cover=0.05   NumBars3Dir=2   NumBars2Dir=2   BarSizeL=12d   BarSizeC=10d   SpacingC=0.1   NumCBars2=2   NumCBars3=2   ReinfType=Design
   SectionName=TB   RebarMatL=A706   RebarMatC=A706   ReinfConfig=Rectangular   LatReinf=Ties   Cover=0.05   NumBars3Dir=2   NumBars2Dir=2   BarSizeL=12d   BarSizeC=10d   SpacingC=0.1   NumCBars2=2   NumCBars3=2   ReinfType=Design
 
TABLE:  "FRAME SECTION PROPERTIES 13 - TIME DEPENDENT"
   SectionName=EB   TypeSize=Auto   AutoSFSize=1
   SectionName=EB-1   TypeSize=Auto   AutoSFSize=1
   SectionName=LB   TypeSize=Auto   AutoSFSize=1
   SectionName=Piles   TypeSize=Auto   AutoSFSize=1
   SectionName=TB   TypeSize=Auto   AutoSFSize=1
 
TABLE:  "FUNCTION - PLOT FUNCTIONS"
   PlotFunc="Input Energy"   Type=Energy   Component=Input   Mode=All
 
TABLE:  "FUNCTION - POWER SPECTRAL DENSITY - USER"
   Name=UNIFPSD   Frequency=0   Value=1
   Name=UNIFPSD   Frequency=1   Value=1
 
TABLE:  "FUNCTION - RESPONSE SPECTRUM - USER"
   Name=UNIFRS   Period=0   Accel=1   FuncDamp=0.05
   Name=UNIFRS   Period=1   Accel=1
 
TABLE:  "FUNCTION - STEADY STATE - USER"
   Name=UNIFSS   Frequency=0   Value=1
   Name=UNIFSS   Frequency=1   Value=1
 
TABLE:  "FUNCTION - TIME HISTORY - USER"
   Name=RAMPTH   Time=0   Value=0
   Name=RAMPTH   Time=1   Value=1
   Name=RAMPTH   Time=4   Value=1
   Name=UNIFTH   Time=0   Value=1
   Name=UNIFTH   Time=1   Value=1
 
TABLE:  "GRID LINES"
   CoordSys=GLOBAL   AxisDir=X   GridID=A   XRYZCoord=-10   LineType=Primary   LineColor=Gray8Dark   Visible=Yes   BubbleLoc=End   AllVisible=Yes   BubbleSize=0.9375
   CoordSys=GLOBAL   AxisDir=X   GridID=B   XRYZCoord=-9   LineType=Primary   LineColor=Gray8Dark   Visible=Yes   BubbleLoc=End
   CoordSys=GLOBAL   AxisDir=X   GridID=C   XRYZCoord=-4.5   LineType=Primary   LineColor=Gray8Dark   Visible=Yes   BubbleLoc=End
   CoordSys=GLOBAL   AxisDir=X   GridID=D   XRYZCoord=0   LineType=Primary   LineColor=Gray8Dark   Visible=Yes   BubbleLoc=End
   CoordSys=GLOBAL   AxisDir=X   GridID=E   XRYZCoord=4.5   LineType=Primary   LineColor=Gray8Dark   Visible=Yes   BubbleLoc=End
   CoordSys=GLOBAL   AxisDir=X   GridID=F   XRYZCoord=9   LineType=Primary   LineColor=Gray8Dark   Visible=Yes   BubbleLoc=End
   CoordSys=GLOBAL   AxisDir=X   GridID=G   XRYZCoord=10   LineType=Primary   LineColor=Gray8Dark   Visible=Yes   BubbleLoc=End
   CoordSys=GLOBAL   AxisDir=Y   GridID=1   XRYZCoord=-5.2   LineType=Primary   LineColor=Gray8Dark   Visible=Yes   BubbleLoc=Start
   CoordSys=GLOBAL   AxisDir=Y   GridID=2   XRYZCoord=-4.2   LineType=Primary   LineColor=Gray8Dark   Visible=Yes   BubbleLoc=Start
   CoordSys=GLOBAL   AxisDir=Y   GridID=3   XRYZCoord=0   LineType=Primary   LineColor=Gray8Dark   Visible=Yes   BubbleLoc=Start
   CoordSys=GLOBAL   AxisDir=Y   GridID=4   XRYZCoord=4.2   LineType=Primary   LineColor=Gray8Dark   Visible=Yes   BubbleLoc=Start
   CoordSys=GLOBAL   AxisDir=Y   GridID=5   XRYZCoord=4.8   LineType=Primary   LineColor=Gray8Dark   Visible=Yes   BubbleLoc=Start
   CoordSys=GLOBAL   AxisDir=Z   GridID=Z1   XRYZCoord=0   LineType=Primary   LineColor=Gray8Dark   Visible=Yes   BubbleLoc=End
   CoordSys=GLOBAL   AxisDir=Z   GridID=Z2   XRYZCoord=13   LineType=Primary   LineColor=Gray8Dark   Visible=Yes   BubbleLoc=End
 
TABLE:  "GROUPS 1 - DEFINITIONS"
   GroupName=ALL   Selection=Yes   SectionCut=Yes   Steel=Yes   Concrete=Yes   Aluminum=Yes   ColdFormed=Yes   Stage=Yes   Bridge=Yes   AutoSeismic=No   AutoWind=No   SelDesSteel=No   SelDesAlum=No   SelDesCold=No   MassWeight=Yes   Color=Red
   GroupName=Pile   Selection=Yes   SectionCut=Yes   Steel=Yes   Concrete=Yes   Aluminum=Yes   ColdFormed=Yes   Stage=Yes   Bridge=Yes   AutoSeismic=No   AutoWind=No   SelDesSteel=No   SelDesAlum=No   SelDesCold=No   MassWeight=Yes   Color=Gray8Dark
   GroupName=DN   Selection=Yes   SectionCut=Yes   Steel=Yes   Concrete=Yes   Aluminum=Yes   ColdFormed=Yes   Stage=Yes   Bridge=Yes   AutoSeismic=No   AutoWind=No   SelDesSteel=No   SelDesAlum=No   SelDesCold=No   MassWeight=Yes   Color=Yellow
   GroupName=Pile_Toe   Selection=Yes   SectionCut=Yes   Steel=Yes   Concrete=Yes   Aluminum=Yes   ColdFormed=Yes   Stage=Yes   Bridge=Yes   AutoSeismic=No   AutoWind=No   SelDesSteel=No   SelDesAlum=No   SelDesCold=No   MassWeight=Yes   Color=Green
   GroupName=Pile_Bend   Selection=Yes   SectionCut=Yes   Steel=Yes   Concrete=Yes   Aluminum=Yes   ColdFormed=Yes   Stage=Yes   Bridge=Yes   AutoSeismic=No   AutoWind=No   SelDesSteel=No   SelDesAlum=No   SelDesCold=No   MassWeight=Yes   Color=Cyan
   GroupName=Beam   Selection=Yes   SectionCut=Yes   Steel=Yes   Concrete=Yes   Aluminum=Yes   ColdFormed=Yes   Stage=Yes   Bridge=Yes   AutoSeismic=No   AutoWind=No   SelDesSteel=No   SelDesAlum=No   SelDesCold=No   MassWeight=Yes   Color=Blue
   GroupName=Piles   Selection=Yes   SectionCut=Yes   Steel=Yes   Concrete=Yes   Aluminum=Yes   ColdFormed=Yes   Stage=Yes   Bridge=Yes   AutoSeismic=No   AutoWind=No   SelDesSteel=No   SelDesAlum=No   SelDesCold=No   MassWeight=Yes   Color=Yellow
   GroupName=Beams   Selection=Yes   SectionCut=Yes   Steel=Yes   Concrete=Yes   Aluminum=Yes   ColdFormed=Yes   Stage=Yes   Bridge=Yes   AutoSeismic=No   AutoWind=No   SelDesSteel=No   SelDesAlum=No   SelDesCold=No   MassWeight=Yes   Color=Gray8Dark
 
TABLE:  "GROUPS 2 - ASSIGNMENTS"
 
TABLE:  "JOINT COORDINATES"
   Joint=444608   CoordSys=GLOBAL   CoordType=Cartesian   XorR=-9   Y=-5   Z=0   SpecialJt=No   GUID=555ad3da-a2bf-4c7e-bd75-d16d120018a9
   Joint=444609   CoordSys=GLOBAL   CoordType=Cartesian   XorR=-9   Y=-2.55   Z=0   SpecialJt=No   GUID=e2f510e9-eb87-4021-91c8-fb899cfc8b41
   Joint=444610   CoordSys=GLOBAL   CoordType=Cartesian   XorR=-6   Y=-5   Z=0   SpecialJt=No   GUID=4d3e4626-86d5-4967-b5a3-c32a2a6f88ce
   Joint=444611   CoordSys=GLOBAL   CoordType=Cartesian   XorR=-6   Y=-2.55   Z=0   SpecialJt=No   GUID=7324a785-ed73-4e33-a365-b407b9d5baa3
   Joint=444612   CoordSys=GLOBAL   CoordType=Cartesian   XorR=-3   Y=-5   Z=0   SpecialJt=No   GUID=c563622f-8732-431e-a007-112fde1bf52e
   Joint=444613   CoordSys=GLOBAL   CoordType=Cartesian   XorR=-3   Y=-2.55   Z=0   SpecialJt=No   GUID=2702b35b-aefc-4a5d-8006-439ec3f41b08
   Joint=444614   CoordSys=GLOBAL   CoordType=Cartesian   XorR=0   Y=-5   Z=0   SpecialJt=No   GUID=76f8d986-46ab-466a-b4dc-773e4b2e316c
   Joint=444615   CoordSys=GLOBAL   CoordType=Cartesian   XorR=0   Y=-2.55   Z=0   SpecialJt=No   GUID=f2c3b6b6-2a63-4eab-9a82-e68de7883a62
   Joint=444616   CoordSys=GLOBAL   CoordType=Cartesian   XorR=3   Y=-5   Z=0   SpecialJt=No   GUID=c69ee97d-3439-4d61-9fdc-fe17a961b27e
   Joint=444617   CoordSys=GLOBAL   CoordType=Cartesian   XorR=3   Y=-2.55   Z=0   SpecialJt=No   GUID=987490b6-ca36-4f0b-86b1-1d754b897ba1
   Joint=444618   CoordSys=GLOBAL   CoordType=Cartesian   XorR=6   Y=-5   Z=0   SpecialJt=No   GUID=fd694317-5064-481f-848a-274fc255e665
   Joint=444619   CoordSys=GLOBAL   CoordType=Cartesian   XorR=6   Y=-2.55   Z=0   SpecialJt=No   GUID=67299615-ba4d-47a0-a8de-37d9087eb3cf
   Joint=444620   CoordSys=GLOBAL   CoordType=Cartesian   XorR=9   Y=-5   Z=0   SpecialJt=No   GUID=d2638693-759e-4ddb-a9d7-6566773b3436
   Joint=444621   CoordSys=GLOBAL   CoordType=Cartesian   XorR=9   Y=-2.55   Z=0   SpecialJt=No   GUID=ef7910c5-3aa6-48de-91ee-97b963530884
   Joint=444622   CoordSys=GLOBAL   CoordType=Cartesian   XorR=-9   Y=2.55   Z=0   SpecialJt=No   GUID=b76d2050-44e3-4ed9-becf-3ab21cdc2d25
   Joint=444623   CoordSys=GLOBAL   CoordType=Cartesian   XorR=-6   Y=2.55   Z=0   SpecialJt=No   GUID=b0ae169e-fb70-4833-aca7-0f73c8223962
   Joint=444624   CoordSys=GLOBAL   CoordType=Cartesian   XorR=-3   Y=2.55   Z=0   SpecialJt=No   GUID=415dc17a-2121-4165-a027-8248d9a7e81b
   Joint=444625   CoordSys=GLOBAL   CoordType=Cartesian   XorR=0   Y=2.55   Z=0   SpecialJt=No   GUID=af872c3e-3982-48b4-9e24-b2e0dc679964
   Joint=444626   CoordSys=GLOBAL   CoordType=Cartesian   XorR=3   Y=2.55   Z=0   SpecialJt=No   GUID=b1a0e27d-66a6-4ffb-a6f2-89bd02720254
   Joint=444627   CoordSys=GLOBAL   CoordType=Cartesian   XorR=6   Y=2.55   Z=0   SpecialJt=No   GUID=c28d22c1-2876-497d-8026-402a02b25a68
   Joint=444628   CoordSys=GLOBAL   CoordType=Cartesian   XorR=9   Y=2.55   Z=0   SpecialJt=No   GUID=2f5ab0c8-35de-452b-8672-d00626e29aa4
   Joint=444629   CoordSys=GLOBAL   CoordType=Cartesian   XorR=-9   Y=5   Z=0   SpecialJt=No   GUID=0598cd92-686b-4f50-8d67-b4dd2a4d7999
   Joint=444630   CoordSys=GLOBAL   CoordType=Cartesian   XorR=-6   Y=5   Z=0   SpecialJt=No   GUID=b48b2e8f-865e-44e4-851b-f1380ab470d8
   Joint=444631   CoordSys=GLOBAL   CoordType=Cartesian   XorR=-3   Y=5   Z=0   SpecialJt=No   GUID=514234aa-7de2-4bec-b5a0-71cff0ea3fc9
   Joint=444632   CoordSys=GLOBAL   CoordType=Cartesian   XorR=0   Y=5   Z=0   SpecialJt=No   GUID=aa0d7a12-1331-4a71-9abc-e0af35675157
   Joint=444633   CoordSys=GLOBAL   CoordType=Cartesian   XorR=3   Y=5   Z=0   SpecialJt=No   GUID=2146a3be-7d71-442d-a243-b6a5dd1d5177
   Joint=444634   CoordSys=GLOBAL   CoordType=Cartesian   XorR=6   Y=5   Z=0   SpecialJt=No   GUID=3b4f847b-1345-4766-a19a-cbeff82ee060
   Joint=444635   CoordSys=GLOBAL   CoordType=Cartesian   XorR=9   Y=5   Z=0   SpecialJt=No   GUID=68ac7b5b-8707-40f3-a3ef-b8124508bf7e
   Joint=444636   CoordSys=GLOBAL   CoordType=Cartesian   XorR=-10   Y=-2.55   Z=0   SpecialJt=No   GUID=12d5892d-9e47-4160-99de-a27b5ccf03fa
   Joint=444637   CoordSys=GLOBAL   CoordType=Cartesian   XorR=-10   Y=2.55   Z=0   SpecialJt=No   GUID=5e66140d-7fd5-476f-84ed-e7b0c6287568
   Joint=444638   CoordSys=GLOBAL   CoordType=Cartesian   XorR=10   Y=-2.55   Z=0   SpecialJt=No   GUID=8f721b73-cc6e-4fab-9426-104b7f222806
   Joint=444639   CoordSys=GLOBAL   CoordType=Cartesian   XorR=10   Y=2.55   Z=0   SpecialJt=No   GUID=4930968d-eb2e-4860-bf04-cf22ff8649b7
   Joint=444640   CoordSys=GLOBAL   CoordType=Cartesian   XorR=-9   Y=-2.55   Z=-3   SpecialJt=No   GUID=1799f6cf-3222-4fc5-8ffb-4c67aac68749
   Joint=444641   CoordSys=GLOBAL   CoordType=Cartesian   XorR=-9   Y=-2.55   Z=-13.4180229476075   SpecialJt=No   GUID=897c6996-ffbe-4db5-9add-aa5776703e29
   Joint=444642   CoordSys=GLOBAL   CoordType=Cartesian   XorR=-9   Y=-2.55   Z=-39   SpecialJt=No   GUID=52c4bbf9-17c8-406f-8309-7abccbfe1be3
   Joint=444643   CoordSys=GLOBAL   CoordType=Cartesian   XorR=-6   Y=-2.55   Z=-3   SpecialJt=No   GUID=6c35a7e6-aa86-4de5-8165-e7de15fad611
   Joint=444644   CoordSys=GLOBAL   CoordType=Cartesian   XorR=-6   Y=-2.55   Z=-13.4180229476075   SpecialJt=No   GUID=d3c76929-6f5f-4098-bf4f-e93f9746d76b
   Joint=444645   CoordSys=GLOBAL   CoordType=Cartesian   XorR=-6   Y=-2.55   Z=-39   SpecialJt=No   GUID=d8032b54-16dc-4ad3-bdcc-0cb5e8f0a382
   Joint=444646   CoordSys=GLOBAL   CoordType=Cartesian   XorR=-3   Y=-2.55   Z=-3   SpecialJt=No   GUID=83a08a52-7676-4894-b704-1cf73c5764b8
   Joint=444647   CoordSys=GLOBAL   CoordType=Cartesian   XorR=-3   Y=-2.55   Z=-13.4180229476075   SpecialJt=No   GUID=7166e611-8d9a-44e0-ae4b-9d37a7c991d1
   Joint=444648   CoordSys=GLOBAL   CoordType=Cartesian   XorR=-3   Y=-2.55   Z=-39   SpecialJt=No   GUID=58e0837d-051e-4e91-89f8-3baba2d9bdd1
   Joint=444649   CoordSys=GLOBAL   CoordType=Cartesian   XorR=0   Y=-2.55   Z=-3   SpecialJt=No   GUID=c19e3b41-46f9-4be6-b2c1-6266455df08f
   Joint=444650   CoordSys=GLOBAL   CoordType=Cartesian   XorR=0   Y=-2.55   Z=-13.4180229476075   SpecialJt=No   GUID=bb074ee0-5e26-46dc-b931-0a00eaf80efa
   Joint=444651   CoordSys=GLOBAL   CoordType=Cartesian   XorR=0   Y=-2.55   Z=-39   SpecialJt=No   GUID=581e0ab1-a005-46de-8be3-e762d1e7b0d0
   Joint=444652   CoordSys=GLOBAL   CoordType=Cartesian   XorR=3   Y=-2.55   Z=-3   SpecialJt=No   GUID=856d257a-84db-4f90-af0f-1c916088c8c4
   Joint=444653   CoordSys=GLOBAL   CoordType=Cartesian   XorR=3   Y=-2.55   Z=-13.4180229476075   SpecialJt=No   GUID=14ea163e-43ce-4c97-bdbf-9bf9e39a88ac
   Joint=444654   CoordSys=GLOBAL   CoordType=Cartesian   XorR=3   Y=-2.55   Z=-39   SpecialJt=No   GUID=19528fdf-2fc6-410d-bc08-c7803f46a892
   Joint=444655   CoordSys=GLOBAL   CoordType=Cartesian   XorR=6   Y=-2.55   Z=-3   SpecialJt=No   GUID=3c45ca07-6a7c-4d23-bd92-4a0606277d16
   Joint=444656   CoordSys=GLOBAL   CoordType=Cartesian   XorR=6   Y=-2.55   Z=-13.4180229476075   SpecialJt=No   GUID=5fce8057-0aa0-4bdb-b37a-948c62479428
   Joint=444657   CoordSys=GLOBAL   CoordType=Cartesian   XorR=6   Y=-2.55   Z=-39   SpecialJt=No   GUID=ff7a22a4-3425-4f78-8a96-55d0c80b40a3
   Joint=444658   CoordSys=GLOBAL   CoordType=Cartesian   XorR=9   Y=-2.55   Z=-3   SpecialJt=No   GUID=b1e6a243-f19c-4a14-9025-efe2381bca65
   Joint=444659   CoordSys=GLOBAL   CoordType=Cartesian   XorR=9   Y=-2.55   Z=-13.4180229476075   SpecialJt=No   GUID=4a805e04-c92a-4182-8711-ef9f9d527975
   Joint=444660   CoordSys=GLOBAL   CoordType=Cartesian   XorR=9   Y=-2.55   Z=-39   SpecialJt=No   GUID=489affb3-1065-4900-a146-603d7cb432ca
   Joint=444661   CoordSys=GLOBAL   CoordType=Cartesian   XorR=-9   Y=2.55   Z=-13.4180229476075   SpecialJt=No   GUID=fbf00412-ea94-48f5-b81a-59ef5d5b3a7e
   Joint=444662   CoordSys=GLOBAL   CoordType=Cartesian   XorR=-9   Y=2.55   Z=-39   SpecialJt=No   GUID=1529a3a4-835e-46c8-afc2-398f6e2dbebd
   Joint=444663   CoordSys=GLOBAL   CoordType=Cartesian   XorR=-6   Y=2.55   Z=-13.4180229476075   SpecialJt=No   GUID=dbd55102-3a86-4c9a-ae32-27f4c2928623
   Joint=444664   CoordSys=GLOBAL   CoordType=Cartesian   XorR=-6   Y=2.55   Z=-39   SpecialJt=No   GUID=57963735-2a33-4278-b92d-27848ea3d15a
   Joint=444665   CoordSys=GLOBAL   CoordType=Cartesian   XorR=-3   Y=2.55   Z=-13.4180229476075   SpecialJt=No   GUID=14658727-47d7-4a5e-ae34-a606d1eb1947
   Joint=444666   CoordSys=GLOBAL   CoordType=Cartesian   XorR=-3   Y=2.55   Z=-39   SpecialJt=No   GUID=8f7cbb8f-f60d-4c3f-96a4-ca900690df9e
   Joint=444667   CoordSys=GLOBAL   CoordType=Cartesian   XorR=0   Y=2.55   Z=-13.4180229476075   SpecialJt=No   GUID=5b7a3167-c829-4907-be37-a66e4f8ee0b1
   Joint=444668   CoordSys=GLOBAL   CoordType=Cartesian   XorR=0   Y=2.55   Z=-39   SpecialJt=No   GUID=7a9e4e46-2d84-4613-8e7e-4cb6d8126f9c
   Joint=444669   CoordSys=GLOBAL   CoordType=Cartesian   XorR=3   Y=2.55   Z=-13.4180229476075   SpecialJt=No   GUID=ed154d22-dc8f-4120-a44c-262260a280c3
   Joint=444670   CoordSys=GLOBAL   CoordType=Cartesian   XorR=3   Y=2.55   Z=-39   SpecialJt=No   GUID=b5b2849d-422b-4f4b-8c47-af315508aa68
   Joint=444671   CoordSys=GLOBAL   CoordType=Cartesian   XorR=6   Y=2.55   Z=-13.4180229476075   SpecialJt=No   GUID=6012cca8-a236-4e97-a16d-10845936839e
   Joint=444672   CoordSys=GLOBAL   CoordType=Cartesian   XorR=6   Y=2.55   Z=-39   SpecialJt=No   GUID=910d0311-ebc4-429c-8475-cea155a27ce2
   Joint=444673   CoordSys=GLOBAL   CoordType=Cartesian   XorR=9   Y=2.55   Z=-13.4180229476075   SpecialJt=No   GUID=446eefff-9e97-4154-82bd-3a2c14c424af
   Joint=444674   CoordSys=GLOBAL   CoordType=Cartesian   XorR=9   Y=2.55   Z=-39   SpecialJt=No   GUID=c4270060-c85a-43b0-b210-1b869c5bec87
   Joint=444675   CoordSys=GLOBAL   CoordType=Cartesian   XorR=-10   Y=-5   Z=0   SpecialJt=No   GUID=144dff4a-c69d-43fd-a001-3edb195d7f6c
   Joint=444676   CoordSys=GLOBAL   CoordType=Cartesian   XorR=10   Y=-5   Z=0   SpecialJt=No   GUID=5b11c997-09ed-4dcc-9678-3ae5d82b3214
   Joint=444677   CoordSys=GLOBAL   CoordType=Cartesian   XorR=-10   Y=5   Z=0   SpecialJt=No   GUID=8bdc4045-32c4-432a-9b48-fa64bee26763
   Joint=444678   CoordSys=GLOBAL   CoordType=Cartesian   XorR=10   Y=5   Z=0   SpecialJt=No   GUID=2d5c5510-d49e-4bf3-a866-a5f0ddd6f7c1
 
TABLE:  "JOINT PATTERN DEFINITIONS"
   Pattern=Default
 
TABLE:  "JOINT RESTRAINT ASSIGNMENTS"
   Joint=444641   U1=Yes   U2=Yes   U3=No   R1=Yes   R2=Yes   R3=Yes
   Joint=444642   U1=No   U2=No   U3=Yes   R1=No   R2=No   R3=No
   Joint=444644   U1=Yes   U2=Yes   U3=No   R1=Yes   R2=Yes   R3=Yes
   Joint=444645   U1=No   U2=No   U3=Yes   R1=No   R2=No   R3=No
   Joint=444647   U1=Yes   U2=Yes   U3=No   R1=Yes   R2=Yes   R3=Yes
   Joint=444648   U1=No   U2=No   U3=Yes   R1=No   R2=No   R3=No
   Joint=444650   U1=Yes   U2=Yes   U3=No   R1=Yes   R2=Yes   R3=Yes
   Joint=444651   U1=No   U2=No   U3=Yes   R1=No   R2=No   R3=No
   Joint=444653   U1=Yes   U2=Yes   U3=No   R1=Yes   R2=Yes   R3=Yes
   Joint=444654   U1=No   U2=No   U3=Yes   R1=No   R2=No   R3=No
   Joint=444656   U1=Yes   U2=Yes   U3=No   R1=Yes   R2=Yes   R3=Yes
   Joint=444657   U1=No   U2=No   U3=Yes   R1=No   R2=No   R3=No
   Joint=444659   U1=Yes   U2=Yes   U3=No   R1=Yes   R2=Yes   R3=Yes
   Joint=444660   U1=No   U2=No   U3=Yes   R1=No   R2=No   R3=No
   Joint=444661   U1=Yes   U2=Yes   U3=No   R1=Yes   R2=Yes   R3=Yes
   Joint=444662   U1=No   U2=No   U3=Yes   R1=No   R2=No   R3=No
   Joint=444663   U1=Yes   U2=Yes   U3=No   R1=Yes   R2=Yes   R3=Yes
   Joint=444664   U1=No   U2=No   U3=Yes   R1=No   R2=No   R3=No
   Joint=444665   U1=Yes   U2=Yes   U3=No   R1=Yes   R2=Yes   R3=Yes
   Joint=444666   U1=No   U2=No   U3=Yes   R1=No   R2=No   R3=No
   Joint=444667   U1=Yes   U2=Yes   U3=No   R1=Yes   R2=Yes   R3=Yes
   Joint=444668   U1=No   U2=No   U3=Yes   R1=No   R2=No   R3=No
   Joint=444669   U1=Yes   U2=Yes   U3=No   R1=Yes   R2=Yes   R3=Yes
   Joint=444670   U1=No   U2=No   U3=Yes   R1=No   R2=No   R3=No
   Joint=444671   U1=Yes   U2=Yes   U3=No   R1=Yes   R2=Yes   R3=Yes
   Joint=444672   U1=No   U2=No   U3=Yes   R1=No   R2=No   R3=No
   Joint=444673   U1=Yes   U2=Yes   U3=No   R1=Yes   R2=Yes   R3=Yes
   Joint=444674   U1=No   U2=No   U3=Yes   R1=No   R2=No   R3=No
 
TABLE:  "LOAD CASE DEFINITIONS"
   Case=DEAD   Type=LinStatic   InitialCond=Zero   DesTypeOpt="Prog Det"   DesignType=Dead   DesActOpt="Prog Det"   DesignAct=Non-Composite   AutoType=None   RunCase=Yes
   Case=MODAL   Type=LinModal   InitialCond=Zero   DesTypeOpt="Prog Det"   DesignType=Other   DesActOpt="Prog Det"   DesignAct=Other   AutoType=None   RunCase=Yes
   Case=LL   Type=LinStatic   InitialCond=Zero   DesTypeOpt="Prog Det"   DesignType=Live   DesActOpt="Prog Det"   DesignAct="Short-Term Composite"   AutoType=None   RunCase=Yes
 
TABLE:  "LOAD PATTERN DEFINITIONS"
   LoadPat=DEAD   DesignType=Dead   SelfWtMult=1
   LoadPat=LL   DesignType=Live   SelfWtMult=0
 
TABLE:  "MASS SOURCE"
   MassSource=MSSSRC1   Elements=Yes   Masses=Yes   Loads=No   IsDefault=Yes
 
TABLE:  "MATERIAL PROPERTIES 01 - GENERAL"
   Material=A706   Type=Rebar   SymType=Uniaxial   TempDepend=No   Color=Gray8Dark   GUID=30185aab-1311-4f4b-9ffe-ddad707d22d9   Notes="ASTM A706 added 8/23/2025 4:27:57 PM"
   Material=BTCT   Type=Concrete   SymType=Isotropic   TempDepend=No   Color=Blue   Notes="Concrete added 24-Feb-23 16:30:01"
   Material=BTCTCOC   Type=Concrete   SymType=Isotropic   TempDepend=No   Color=Blue   Notes="Concrete added 24-Feb-23 16:30:01"
   Material=Steel   Type=Steel   SymType=Isotropic   TempDepend=No   Color=Magenta   GUID=2f952889-4898-4964-97a4-5fb5c5008d33   Notes="Steel added 8/24/2025 2:51:43 PM"
   Material=Tendon   Type=Tendon   SymType=Uniaxial   TempDepend=No   Color=Yellow   GUID=7dfcd093-823e-4b3a-b96f-35d5bcaf456f   Notes="Tendon added 8/24/2025 2:51:43 PM"
 
TABLE:  "MATERIAL PROPERTIES 02 - BASIC MECHANICAL PROPERTIES"
   Material=A706   UnitWeight=7.84904757236607   UnitMass=0.800380070686609   E1=20389019.1580383   A1=1.16999994421006E-05
   Material=BTCT   UnitWeight=2.40276966501002   UnitMass=0.245014307353044   E1=2900000   G12=1208333.33333333   U12=0.2   A1=9.9E-06
   Material=BTCTCOC   UnitWeight=2.40276966501002   UnitMass=0.245014307353044   E1=3800000000   G12=1583333333.33333   U12=0.2   A1=9.9E-06
   Material=Steel   UnitWeight=7.84904757236607   UnitMass=0.800380070686609   E1=20389019.1580383   G12=7841930.44539935   U12=0.3   A1=1.17E-05
   Material=Tendon   UnitWeight=7.84904757236607   UnitMass=0.800380070686609   E1=20037484.3449687   A1=1.16999994421006E-05
 
TABLE:  "MATERIAL PROPERTIES 03A - STEEL DATA"
   Material=Steel   Fy=35153.4813069626   Fu=45699.5256990514   EffFy=38668.8294376589   EffFu=50269.4782689565   SSCurveOpt=Simple   SSHysType=Kinematic   SHard=0.015   SMax=0.11   SRup=0.17   FinalSlope=-0.1   CoupModType="Von Mises"
 
TABLE:  "MATERIAL PROPERTIES 03B - CONCRETE DATA"
   Material=BTCT   Fc=2812.27850455701   eFc=2812.27850455701   LtWtConc=No   SSCurveOpt=Mander   SSHysType=Takeda   SFc=0.002   SCap=0.005   FinalSlope=-0.1   FAngle=0   DAngle=0   CoupModType="Modified Darwin-Pecknold"
   Material=BTCTCOC   Fc=2812.27850455701   eFc=2812.27850455701   LtWtConc=No   SSCurveOpt=Mander   SSHysType=Takeda   SFc=0.002   SCap=0.005   FinalSlope=-0.1   FAngle=0   DAngle=0   CoupModType="Modified Darwin-Pecknold"
 
TABLE:  "MATERIAL PROPERTIES 03E - REBAR DATA"
   Material=A706   Fy=42184.1775683551   Fu=56245.5700911402   EffFy=46402.5953251907   EffFu=61870.1271002542   SSCurveOpt=Simple   SSHysType=Kinematic   SHard=0.011   SCap=0.11   FinalSlope=-0.1   UseCTDef=No   CoupModType="Von Mises"
 
TABLE:  "MATERIAL PROPERTIES 03F - TENDON DATA"
   Material=Tendon   Fy=172322.365366731   Fu=189828.799057598   SSCurveOpt="270 ksi"   SSHysType=Kinematic   FinalSlope=-0.1   CoupModType="Von Mises"
 
TABLE:  "MATERIAL PROPERTIES 03J - COUPLED NONLINEAR VON MISES DATA"
   Material=A706   YieldStress=46402.5953251907   LinIsoHard=No   LinKinHard=No   NLIsoSaHard=No
   Material=Steel   YieldStress=38668.8294376589   LinIsoHard=No   LinKinHard=No   NLIsoSaHard=No
   Material=Tendon   YieldStress=172322.365366731   LinIsoHard=No   LinKinHard=No   NLIsoSaHard=No
 
TABLE:  "MATERIAL PROPERTIES 06 - DAMPING PARAMETERS"
   Material=A706   ModalRatio=0   VisMass=0   VisStiff=0   HysMass=0   HysStiff=0
   Material=BTCT   ModalRatio=0   VisMass=0   VisStiff=0   HysMass=0   HysStiff=0
   Material=BTCTCOC   ModalRatio=0   VisMass=0   VisStiff=0   HysMass=0   HysStiff=0
   Material=Steel   ModalRatio=0   VisMass=0   VisStiff=0   HysMass=0   HysStiff=0
   Material=Tendon   ModalRatio=0   VisMass=0   VisStiff=0   HysMass=0   HysStiff=0
 
TABLE:  "MATERIAL PROPERTIES 09 - ACCEPTANCE CRITERIA"
   Material=A706   IOTens=0.01   LSTens=0.02   CPTens=0.05   IOComp=-0.005   LSComp=-0.01   CPComp=-0.02
   Material=BTCT   IOTens=0.01   LSTens=0.02   CPTens=0.05   IOComp=-0.003   LSComp=-0.006   CPComp=-0.015   IgnoreTens=Yes
   Material=BTCTCOC   IOTens=0.01   LSTens=0.02   CPTens=0.05   IOComp=-0.003   LSComp=-0.006   CPComp=-0.015   IgnoreTens=Yes
   Material=Steel   IOTens=0.01   LSTens=0.02   CPTens=0.05   IOComp=-0.005   LSComp=-0.01   CPComp=-0.02
   Material=Tendon   IOTens=0.015   LSTens=0.023   CPTens=0.03   IOComp=-0.015   LSComp=-0.023   CPComp=-0.03
 
TABLE:  "OPTIONS - COLORS - DISPLAY"
   DeviceType=Screen   Points=Blue   LinesFrame=Blue   LinesFrmDL=Blue   LinesCable=Green   LinesTendon=Green   SpringLinks=Green   Restraints=Green   Releases=Green   Axes=Cyan   Text=Black   ShadowLines=Gray8Dark   GuideLines=Gray8Dark _
        Highlight=Red   Selection=10504778   AreaFillBot=Red   AreaFillTop=16744703   AreaFillSd=Red   AreaEdge=DarkRed   SolidF1=Red   SolidF2=Blue   SolidF3=Green   SolidF4=Yellow   SolidF5=White   SolidF6=Cyan   SolidEdge=DarkRed _
        Floor=Gray4   Background=White   BGLowLeft=White   BGLowRight=White   BGUpRight=White   Darkness=0.5
   DeviceType=Printer   Points=Gray8Dark   LinesFrame=Black   LinesFrmDL=Gray4   LinesCable=Black   LinesTendon=Black   SpringLinks=Gray8Dark   Restraints=Gray8Dark   Releases=Gray4   Axes=Black   Text=Black   ShadowLines=Gray4 _
        GuideLines=Gray4   Highlight=Black   Selection=Black   AreaFillBot=Gray4   AreaFillTop=Gray8Dark   AreaFillSd=Gray4   AreaEdge=Black   SolidF1=Gray1Light   SolidF2=Gray2   SolidF3=Gray3   SolidF4=Gray4   SolidF5=Gray5 _
        SolidF6=Gray6   SolidEdge=Black   Floor=Gray4   Background=White   BGLowLeft=White   BGLowRight=White   BGUpRight=White   Darkness=0.5
   DeviceType="Color Printer"   Points=Blue   LinesFrame=Blue   LinesFrmDL=Blue   LinesCable=Green   LinesTendon=Green   SpringLinks=Green   Restraints=Green   Releases=Green   Axes=Cyan   Text=Black   ShadowLines=Gray8Dark _
        GuideLines=Gray8Dark   Highlight=Red   Selection=10504778   AreaFillBot=Red   AreaFillTop=16744703   AreaFillSd=Red   AreaEdge=DarkRed   SolidF1=Red   SolidF2=Blue   SolidF3=Green   SolidF4=Yellow   SolidF5=White   SolidF6=Cyan _
        SolidEdge=DarkRed   Floor=Gray4   Background=White   BGLowLeft=White   BGLowRight=White   BGUpRight=White   Darkness=0.5
 
TABLE:  "OPTIONS - COLORS - OUTPUT"
   DeviceType=Screen   Contour1=13107400   Contour2=6553828   Contour3=Red   Contour4=16639   Contour5=Orange   Contour6=43775   Contour7=54527   Contour8=Yellow   Contour9=65408   Contour10=Green   Contour11=8453888   Contour12=Cyan _
        Contour13=16755200   Contour14=16733440   Contour15=Blue   Transpare=0.5   Ratio1=Cyan   Ratio2=Green   Ratio3=Yellow   Ratio4=Orange   Ratio5=Red   RatioNotD=Gray4   RatioNotC=Red   RatioVal1=0.5   RatioVal2=0.7   RatioVal3=0.9 _
        RatioVal4=1   DFillPos=Blue   DFillNeg=Red   DFillRPos=Green   DFillRNeg=Green
   DeviceType=Printer   Contour1=Black   Contour2=3158064   Contour3=4210752   Contour4=5263440   Contour5=6316128   Contour6=7368816   Contour7=Gray8Dark   Contour8=Gray7   Contour9=Gray6   Contour10=Gray5   Contour11=Gray4 _
        Contour12=Gray3   Contour13=Gray2   Contour14=Gray1Light   Contour15=White   Transpare=0   Ratio1=Gray2   Ratio2=Gray4   Ratio3=Gray8Dark   Ratio4=4210752   Ratio5=Black   RatioNotD=Gray4   RatioNotC=Black   RatioVal1=0.5 _
        RatioVal2=0.7   RatioVal3=0.9   RatioVal4=1   DFillPos=Gray8Dark   DFillNeg=Gray8Dark   DFillRPos=4210752   DFillRNeg=4210752
   DeviceType="Color Printer"   Contour1=13107400   Contour2=6553828   Contour3=Red   Contour4=16639   Contour5=Orange   Contour6=43775   Contour7=54527   Contour8=Yellow   Contour9=65408   Contour10=Green   Contour11=8453888 _
        Contour12=Cyan   Contour13=16755200   Contour14=16733440   Contour15=Blue   Transpare=0   Ratio1=Cyan   Ratio2=Green   Ratio3=Yellow   Ratio4=Orange   Ratio5=Red   RatioNotD=Gray4   RatioNotC=Red   RatioVal1=0.5   RatioVal2=0.7 _
        RatioVal3=0.9   RatioVal4=1   DFillPos=Blue   DFillNeg=Red   DFillRPos=Green   DFillRNeg=Green
 
TABLE:  "OVERWRITES - CONCRETE DESIGN - CSA-A233-14"
   Frame=497302   DesignSect="Program Determined"   FrameType="Program Determined"   RLLF=0   XLMajor=0   XLMinor=0   XKMajor=0   XKMinor=0   CmMajor=0   CmMinor=0   DbMajor=0   DbMinor=0   DsMajor=0   DsMinor=0   Rd=0   Ro=0   MaxAggSize=0
   Frame=497303   DesignSect="Program Determined"   FrameType="Program Determined"   RLLF=0   XLMajor=0   XLMinor=0   XKMajor=0   XKMinor=0   CmMajor=0   CmMinor=0   DbMajor=0   DbMinor=0   DsMajor=0   DsMinor=0   Rd=0   Ro=0   MaxAggSize=0
   Frame=497304   DesignSect="Program Determined"   FrameType="Program Determined"   RLLF=0   XLMajor=0   XLMinor=0   XKMajor=0   XKMinor=0   CmMajor=0   CmMinor=0   DbMajor=0   DbMinor=0   DsMajor=0   DsMinor=0   Rd=0   Ro=0   MaxAggSize=0
   Frame=497305   DesignSect="Program Determined"   FrameType="Program Determined"   RLLF=0   XLMajor=0   XLMinor=0   XKMajor=0   XKMinor=0   CmMajor=0   CmMinor=0   DbMajor=0   DbMinor=0   DsMajor=0   DsMinor=0   Rd=0   Ro=0   MaxAggSize=0
   Frame=497306   DesignSect="Program Determined"   FrameType="Program Determined"   RLLF=0   XLMajor=0   XLMinor=0   XKMajor=0   XKMinor=0   CmMajor=0   CmMinor=0   DbMajor=0   DbMinor=0   DsMajor=0   DsMinor=0   Rd=0   Ro=0   MaxAggSize=0
   Frame=497307   DesignSect="Program Determined"   FrameType="Program Determined"   RLLF=0   XLMajor=0   XLMinor=0   XKMajor=0   XKMinor=0   CmMajor=0   CmMinor=0   DbMajor=0   DbMinor=0   DsMajor=0   DsMinor=0   Rd=0   Ro=0   MaxAggSize=0
   Frame=497308   DesignSect="Program Determined"   FrameType="Program Determined"   RLLF=0   XLMajor=0   XLMinor=0   XKMajor=0   XKMinor=0   CmMajor=0   CmMinor=0   DbMajor=0   DbMinor=0   DsMajor=0   DsMinor=0   Rd=0   Ro=0   MaxAggSize=0
   Frame=497309   DesignSect="Program Determined"   FrameType="Program Determined"   RLLF=0   XLMajor=0   XLMinor=0   XKMajor=0   XKMinor=0   CmMajor=0   CmMinor=0   DbMajor=0   DbMinor=0   DsMajor=0   DsMinor=0   Rd=0   Ro=0   MaxAggSize=0
   Frame=497310   DesignSect="Program Determined"   FrameType="Program Determined"   RLLF=0   XLMajor=0   XLMinor=0   XKMajor=0   XKMinor=0   CmMajor=0   CmMinor=0   DbMajor=0   DbMinor=0   DsMajor=0   DsMinor=0   Rd=0   Ro=0   MaxAggSize=0
   Frame=497311   DesignSect="Program Determined"   FrameType="Program Determined"   RLLF=0   XLMajor=0   XLMinor=0   XKMajor=0   XKMinor=0   CmMajor=0   CmMinor=0   DbMajor=0   DbMinor=0   DsMajor=0   DsMinor=0   Rd=0   Ro=0   MaxAggSize=0
   Frame=497312   DesignSect="Program Determined"   FrameType="Program Determined"   RLLF=0   XLMajor=0   XLMinor=0   XKMajor=0   XKMinor=0   CmMajor=0   CmMinor=0   DbMajor=0   DbMinor=0   DsMajor=0   DsMinor=0   Rd=0   Ro=0   MaxAggSize=0
   Frame=497313   DesignSect="Program Determined"   FrameType="Program Determined"   RLLF=0   XLMajor=0   XLMinor=0   XKMajor=0   XKMinor=0   CmMajor=0   CmMinor=0   DbMajor=0   DbMinor=0   DsMajor=0   DsMinor=0   Rd=0   Ro=0   MaxAggSize=0
   Frame=497314   DesignSect="Program Determined"   FrameType="Program Determined"   RLLF=0   XLMajor=0   XLMinor=0   XKMajor=0   XKMinor=0   CmMajor=0   CmMinor=0   DbMajor=0   DbMinor=0   DsMajor=0   DsMinor=0   Rd=0   Ro=0   MaxAggSize=0
   Frame=497315   DesignSect="Program Determined"   FrameType="Program Determined"   RLLF=0   XLMajor=0   XLMinor=0   XKMajor=0   XKMinor=0   CmMajor=0   CmMinor=0   DbMajor=0   DbMinor=0   DsMajor=0   DsMinor=0   Rd=0   Ro=0   MaxAggSize=0
   Frame=497316   DesignSect="Program Determined"   FrameType="Program Determined"   RLLF=0   XLMajor=0   XLMinor=0   XKMajor=0   XKMinor=0   CmMajor=0   CmMinor=0   DbMajor=0   DbMinor=0   DsMajor=0   DsMinor=0   Rd=0   Ro=0   MaxAggSize=0
   Frame=497317   DesignSect="Program Determined"   FrameType="Program Determined"   RLLF=0   XLMajor=0   XLMinor=0   XKMajor=0   XKMinor=0   CmMajor=0   CmMinor=0   DbMajor=0   DbMinor=0   DsMajor=0   DsMinor=0   Rd=0   Ro=0   MaxAggSize=0
   Frame=497318   DesignSect="Program Determined"   FrameType="Program Determined"   RLLF=0   XLMajor=0   XLMinor=0   XKMajor=0   XKMinor=0   CmMajor=0   CmMinor=0   DbMajor=0   DbMinor=0   DsMajor=0   DsMinor=0   Rd=0   Ro=0   MaxAggSize=0
   Frame=497319   DesignSect="Program Determined"   FrameType="Program Determined"   RLLF=0   XLMajor=0   XLMinor=0   XKMajor=0   XKMinor=0   CmMajor=0   CmMinor=0   DbMajor=0   DbMinor=0   DsMajor=0   DsMinor=0   Rd=0   Ro=0   MaxAggSize=0
   Frame=497320   DesignSect="Program Determined"   FrameType="Program Determined"   RLLF=0   XLMajor=0   XLMinor=0   XKMajor=0   XKMinor=0   CmMajor=0   CmMinor=0   DbMajor=0   DbMinor=0   DsMajor=0   DsMinor=0   Rd=0   Ro=0   MaxAggSize=0
   Frame=497321   DesignSect="Program Determined"   FrameType="Program Determined"   RLLF=0   XLMajor=0   XLMinor=0   XKMajor=0   XKMinor=0   CmMajor=0   CmMinor=0   DbMajor=0   DbMinor=0   DsMajor=0   DsMinor=0   Rd=0   Ro=0   MaxAggSize=0
# ... 30 like lines cut
 
TABLE:  "PREFERENCES - ALUMINUM DESIGN - AA 2015"
   THDesign=Envelopes   SRatioLimit=1   Provision=ASD   LatFact=1.33333333333333   UseLatFact=No   Bridge=No   OmegaTy=1.65   OmegaTr=1.95   OmegaC=1.65   OmegaBo=1.65   OmegaBr=1.95   OmegaVo=1.65   OmegaVr=1.95
 
TABLE:  "PREFERENCES - COLD FORMED DESIGN - AISI-ASD96"
   THDesign=Envelopes   FrameType="Braced Frame"   SRatioLimit=1   MaxIter=1   OmegaBS=1.67   OmegaBUS=1.67   OmegaBLTB=1.67   OmegaVS=1.67   OmegaVNS=1.5   OmegaT=1.67   OmegaC=1.8
 
TABLE:  "PREFERENCES - CONCRETE DESIGN - CSA-A233-14"
   THDesign=Envelopes   NumCurves=24   NumPoints=11   MinEccen=Yes   BCCDesign=Yes   CTorsion=Yes   PatLLF=0.75   UFLimit=0.95   PhiS=0.85   PhiC=0.65
 
TABLE:  "PREFERENCES - CONCRETE SHELL DESIGN - EUROCODE 2-2004"
   Country="CEN Default"   GammaS=1.15   GammaC=1.5   AlphaCC=1
 
TABLE:  "PREFERENCES - DIMENSIONAL"
   MergeTol=0.001   FineGrid=0.25   Nudge=0.25   SelectTol=3   SnapTol=12   SLineThick=1   PLineThick=4   MaxFont=8   MinFont=3   AutoZoom=10   ShrinkFact=70   TextFileLen=240
 
TABLE:  "PREFERENCES - STEEL DESIGN - AISC 360-10"
   THDesign=Envelopes   FrameType=SMF   PatLLF=0.75   SRatioLimit=0.95   MaxIter=1   SDC=D   SeisCode=No   SeisLoad=No   ImpFactor=1   SystemRho=1   SystemSds=0.5   SystemR=8   SystemCd=5.5   Omega0=3   Provision=LRFD _
        AMethod="Direct Analysis"   SOMethod="General 2nd Order"   SRMethod="Tau-b Fixed"   NLCoeff=0.002   PhiB=0.9   PhiC=0.9   PhiTY=0.9   PhiTF=0.75   PhiV=0.9   PhiVRolledI=1   PhiVT=0.9   PlugWeld=Yes   HSSWelding=ERW   HSSReduceT=No _
        CheckDefl=No   DLRat=120   SDLAndLLRat=120   LLRat=360   TotalRat=240   NetRat=240
 
TABLE:  "PROGRAM CONTROL"
   ProgramName=SAP2000   Version=24.0.0   CurrUnits="Tonf, m, C"   SteelCode="AISC 360-10"   ConcCode="CSA A23.3-14"   AlumCode="AA 2015"   ColdCode=AISI-ASD96   RegenHinge=Yes
 
TABLE:  "PROJECT INFORMATION"
   Item="Company Name"   Data=po
   Item="Client Name"
   Item="Project Name"
   Item="Project Number"
   Item="Model Name"
   Item="Model Description"
   Item="Revision Number"
   Item="Frame Type"
   Item=Engineer
   Item=Checker
   Item=Supervisor
   Item="Issue Code"
   Item="Design Code"
 
TABLE:  "REBAR SIZES"
   RebarID=#2   Area=3.2258E-05   Diameter=0.00635
   RebarID=#3   Area=7.09675996154547E-05   Diameter=0.009525
   RebarID=#4   Area=0.000129032001922727   Diameter=0.0127
   RebarID=#5   Area=0.000199999601538181   Diameter=0.015875
   RebarID=#6   Area=0.000283870398461819   Diameter=0.01905
   RebarID=#7   Area=0.000387096015381813   Diameter=0.022225
   RebarID=#8   Area=0.000509676413843632   Diameter=0.0254
   RebarID=#9   Area=0.00064516   Diameter=0.0286512005329132
   RebarID=#10   Area=0.00081935318769455   Diameter=0.0322579995155334
   RebarID=#11   Area=0.00100644956308365   Diameter=0.0358139991521835
   RebarID=#14   Area=0.00145161   Diameter=0.0430021989583969
   RebarID=#18   Area=0.00258064   Diameter=0.0573277992248535
   RebarID=10M   Area=0.000100000004162606   Diameter=0.0113000003604438
   RebarID=15M   Area=0.000200000008325212   Diameter=0.0160000002402959
   RebarID=20M   Area=0.000300000012487818   Diameter=0.0195000002928606
   RebarID=25M   Area=0.000500000020813031   Diameter=0.0252000011414055
   RebarID=30M   Area=0.000700000029138243   Diameter=0.0299000000675832
   RebarID=35M   Area=0.00100000004162606   Diameter=0.0357000012990997
   RebarID=45M   Area=0.00150000006243909   Diameter=0.0437000014192476
   RebarID=55M   Area=0.00250000010406515   Diameter=0.056400002372922
   RebarID=6d   Area=2.83000004150781E-05   Diameter=0.00600000009011096
   RebarID=8d   Area=5.03000013308514E-05   Diameter=0.00800000012014795
   RebarID=10d   Area=7.85000032676458E-05   Diameter=0.0100000001501849
   RebarID=12d   Area=0.000113000004703745   Diameter=0.0120000001802219
   RebarID=14d   Area=0.000154000006410413   Diameter=0.0140000002102589
   RebarID=16d   Area=0.000201000008366838   Diameter=0.0160000002402959
   RebarID=20d   Area=0.000314000013070583   Diameter=0.0200000003003699
   RebarID=25d   Area=0.000491000020438396   Diameter=0.0250000003754623
   RebarID=26d   Area=0.000531000022103439   Diameter=0.0260000003904808
   RebarID=28d   Area=0.000616000025641654   Diameter=0.0280000004205178
   RebarID=N12   Area=0.000113000004703745   Diameter=0.0120000001802219
   RebarID=N16   Area=0.000201000008366838   Diameter=0.0160000002402959
   RebarID=N20   Area=0.000314000013070583   Diameter=0.0200000003003699
   RebarID=N24   Area=0.00045200001881498   Diameter=0.0240000003604438
   RebarID=N28   Area=0.000616000025641654   Diameter=0.0280000004205178
   RebarID=N32   Area=0.000804000033467353   Diameter=0.0320000004805918
   RebarID=N36   Area=0.00102000004245858   Diameter=0.0360000005406658
 
TABLE:  "SOLID PROPERTY DEFINITIONS"
   SolidProp=Solid1   Material=BTCT   MatAngleA=0   MatAngleB=0   MatAngleC=0   InComp=Yes   Color=Gray8Dark
 
END TABLE DATA
