File D:\ResearchLab\02_Projects\02_Projects\Tap chi XD_SFOA\KE SAU CAU\Sap\ke pd 10.PRISTINE_BASELINE.$2k was saved on m/d/yy at h:mm:ss
 
TABLE:  "ACTIVE DEGREES OF FREEDOM"
   UX=Yes   UY=Yes   UZ=Yes   RX=Yes   RY=Yes   RZ=Yes
 
TABLE:  "ANALYSIS OPTIONS"
   Solver=Advanced   SolverProc=Auto   Force32Bit=No   StiffCase=None   GeomMod=None   HingeOpt="In Elements"   NumAThreads=0   MaxFileSize=0   NumDThreads=0   NumRThreads=0   UseMMFiles="Program Determined"   AllowDiff=No
 
TABLE:  "AREA LOADS - UNIFORM"
   Area=1   LoadPat=ALD   CoordSys=GLOBAL   Dir=X   UnifLoad=-0.935
   Area=2   LoadPat=ALD   CoordSys=GLOBAL   Dir=X   UnifLoad=-0.935
   Area=3   LoadPat=ALD   CoordSys=GLOBAL   Dir=X   UnifLoad=-0.935
   Area=4   LoadPat=ALD   CoordSys=GLOBAL   Dir=X   UnifLoad=-0.935
   Area=5   LoadPat=ALD   CoordSys=GLOBAL   Dir=X   UnifLoad=-0.935
   Area=6   LoadPat=ALD   CoordSys=GLOBAL   Dir=X   UnifLoad=-0.935
   Area=7   LoadPat=ALD   CoordSys=GLOBAL   Dir=X   UnifLoad=-0.935
   Area=8   LoadPat=ALD   CoordSys=GLOBAL   Dir=X   UnifLoad=-0.935
   Area=9   LoadPat=ALD   CoordSys=GLOBAL   Dir=X   UnifLoad=-0.935
   Area=10   LoadPat=ALD   CoordSys=GLOBAL   Dir=X   UnifLoad=-0.935
   Area=11   LoadPat=ALD   CoordSys=GLOBAL   Dir=X   UnifLoad=-0.935
   Area=12   LoadPat=ALD   CoordSys=GLOBAL   Dir=X   UnifLoad=-0.935
   Area=13   LoadPat=Gdat   CoordSys=GLOBAL   Dir=Gravity   UnifLoad=7.02
   Area=14   LoadPat=Gdat   CoordSys=GLOBAL   Dir=Gravity   UnifLoad=7.02
   Area=15   LoadPat=Gdat   CoordSys=GLOBAL   Dir=Gravity   UnifLoad=7.02
   Area=16   LoadPat=Gdat   CoordSys=GLOBAL   Dir=Gravity   UnifLoad=7.02
   Area=17   LoadPat=Gdat   CoordSys=GLOBAL   Dir=Gravity   UnifLoad=7.02
   Area=18   LoadPat=Gdat   CoordSys=GLOBAL   Dir=Gravity   UnifLoad=7.02
   Area=19   LoadPat=Gdat   CoordSys=GLOBAL   Dir=Gravity   UnifLoad=7.02
   Area=20   LoadPat=Gdat   CoordSys=GLOBAL   Dir=Gravity   UnifLoad=7.02
   Area=21   LoadPat=Gdat   CoordSys=GLOBAL   Dir=Gravity   UnifLoad=7.02
   Area=22   LoadPat=Gdat   CoordSys=GLOBAL   Dir=Gravity   UnifLoad=7.02
   Area=23   LoadPat=Gdat   CoordSys=GLOBAL   Dir=Gravity   UnifLoad=7.02
   Area=24   LoadPat=Gdat   CoordSys=GLOBAL   Dir=Gravity   UnifLoad=7.02
   Area=25   LoadPat=Gdat   CoordSys=GLOBAL   Dir=Gravity   UnifLoad=7.02
   Area=26   LoadPat=Gdat   CoordSys=GLOBAL   Dir=Gravity   UnifLoad=7.02
   Area=27   LoadPat=Gdat   CoordSys=GLOBAL   Dir=Gravity   UnifLoad=7.02
   Area=28   LoadPat=Gdat   CoordSys=GLOBAL   Dir=Gravity   UnifLoad=7.02
   Area=29   LoadPat=Gdat   CoordSys=GLOBAL   Dir=Gravity   UnifLoad=7.02
   Area=30   LoadPat=Gdat   CoordSys=GLOBAL   Dir=Gravity   UnifLoad=7.02
   Area=31   LoadPat=Gdat   CoordSys=GLOBAL   Dir=Gravity   UnifLoad=7.02
   Area=32   LoadPat=Gdat   CoordSys=GLOBAL   Dir=Gravity   UnifLoad=7.02
# ... 77 like lines cut
   Area=349   LoadPat=HH   CoordSys=GLOBAL   Dir=Gravity   UnifLoad=2
   Area=350   LoadPat=Gdat   CoordSys=GLOBAL   Dir=Gravity   UnifLoad=7.02
   Area=350   LoadPat=HH   CoordSys=GLOBAL   Dir=Gravity   UnifLoad=2
   Area=351   LoadPat=Gdat   CoordSys=GLOBAL   Dir=Gravity   UnifLoad=7.02
   Area=351   LoadPat=HH   CoordSys=GLOBAL   Dir=Gravity   UnifLoad=2
   Area=352   LoadPat=Gdat   CoordSys=GLOBAL   Dir=Gravity   UnifLoad=7.02
   Area=352   LoadPat=HH   CoordSys=GLOBAL   Dir=Gravity   UnifLoad=2
   Area=353   LoadPat=Gdat   CoordSys=GLOBAL   Dir=Gravity   UnifLoad=7.02
   Area=353   LoadPat=HH   CoordSys=GLOBAL   Dir=Gravity   UnifLoad=2
   Area=354   LoadPat=Gdat   CoordSys=GLOBAL   Dir=Gravity   UnifLoad=7.02
   Area=354   LoadPat=HH   CoordSys=GLOBAL   Dir=Gravity   UnifLoad=2
   Area=355   LoadPat=Gdat   CoordSys=GLOBAL   Dir=Gravity   UnifLoad=7.02
   Area=355   LoadPat=HH   CoordSys=GLOBAL   Dir=Gravity   UnifLoad=2
   Area=356   LoadPat=Gdat   CoordSys=GLOBAL   Dir=Gravity   UnifLoad=7.02
   Area=356   LoadPat=HH   CoordSys=GLOBAL   Dir=Gravity   UnifLoad=2
   Area=357   LoadPat=Gdat   CoordSys=GLOBAL   Dir=Gravity   UnifLoad=7.02
   Area=357   LoadPat=HH   CoordSys=GLOBAL   Dir=Gravity   UnifLoad=2
   Area=358   LoadPat=Gdat   CoordSys=GLOBAL   Dir=Gravity   UnifLoad=7.02
   Area=358   LoadPat=HH   CoordSys=GLOBAL   Dir=Gravity   UnifLoad=2
   Area=359   LoadPat=Gdat   CoordSys=GLOBAL   Dir=Gravity   UnifLoad=7.02
   Area=359   LoadPat=HH   CoordSys=GLOBAL   Dir=Gravity   UnifLoad=2
   Area=360   LoadPat=Gdat   CoordSys=GLOBAL   Dir=Gravity   UnifLoad=7.02
   Area=360   LoadPat=HH   CoordSys=GLOBAL   Dir=Gravity   UnifLoad=2
   Area=361   LoadPat=Gdat   CoordSys=GLOBAL   Dir=Gravity   UnifLoad=7.02
   Area=361   LoadPat=HH   CoordSys=GLOBAL   Dir=Gravity   UnifLoad=2
   Area=362   LoadPat=Gdat   CoordSys=GLOBAL   Dir=Gravity   UnifLoad=7.02
   Area=362   LoadPat=HH   CoordSys=GLOBAL   Dir=Gravity   UnifLoad=2
   Area=363   LoadPat=Gdat   CoordSys=GLOBAL   Dir=Gravity   UnifLoad=7.02
   Area=363   LoadPat=HH   CoordSys=GLOBAL   Dir=Gravity   UnifLoad=2
   Area=364   LoadPat=Gdat   CoordSys=GLOBAL   Dir=Gravity   UnifLoad=7.02
   Area=364   LoadPat=HH   CoordSys=GLOBAL   Dir=Gravity   UnifLoad=2
   Area=365   LoadPat=Gdat   CoordSys=GLOBAL   Dir=Gravity   UnifLoad=7.02
   Area=365   LoadPat=HH   CoordSys=GLOBAL   Dir=Gravity   UnifLoad=2
   Area=366   LoadPat=Gdat   CoordSys=GLOBAL   Dir=Gravity   UnifLoad=7.02
   Area=366   LoadPat=HH   CoordSys=GLOBAL   Dir=Gravity   UnifLoad=2
   Area=367   LoadPat=Gdat   CoordSys=GLOBAL   Dir=Gravity   UnifLoad=7.02
   Area=367   LoadPat=HH   CoordSys=GLOBAL   Dir=Gravity   UnifLoad=2
   Area=368   LoadPat=Gdat   CoordSys=GLOBAL   Dir=Gravity   UnifLoad=7.02
   Area=368   LoadPat=HH   CoordSys=GLOBAL   Dir=Gravity   UnifLoad=2
   Area=369   LoadPat=Gdat   CoordSys=GLOBAL   Dir=Gravity   UnifLoad=7.02
# ... 247 like lines cut
   Area=493   LoadPat=ALD   CoordSys=GLOBAL   Dir=X   UnifLoad=-0.935
   Area=494   LoadPat=ALD   CoordSys=GLOBAL   Dir=X   UnifLoad=-0.935
   Area=495   LoadPat=ALD   CoordSys=GLOBAL   Dir=X   UnifLoad=-0.935
   Area=496   LoadPat=ALD   CoordSys=GLOBAL   Dir=X   UnifLoad=-0.935
   Area=497   LoadPat=ALD   CoordSys=GLOBAL   Dir=X   UnifLoad=-0.935
   Area=498   LoadPat=ALD   CoordSys=GLOBAL   Dir=X   UnifLoad=-0.935
   Area=499   LoadPat=ALD   CoordSys=GLOBAL   Dir=X   UnifLoad=-0.935
   Area=500   LoadPat=ALD   CoordSys=GLOBAL   Dir=X   UnifLoad=-0.935
   Area=501   LoadPat=ALD   CoordSys=GLOBAL   Dir=X   UnifLoad=-0.935
   Area=502   LoadPat=ALD   CoordSys=GLOBAL   Dir=X   UnifLoad=-0.935
   Area=503   LoadPat=ALD   CoordSys=GLOBAL   Dir=X   UnifLoad=-0.935
   Area=541   LoadPat=ALD   CoordSys=GLOBAL   Dir=X   UnifLoad=-2.104
   Area=542   LoadPat=ALD   CoordSys=GLOBAL   Dir=X   UnifLoad=-2.104
   Area=543   LoadPat=ALD   CoordSys=GLOBAL   Dir=X   UnifLoad=-2.104
   Area=544   LoadPat=ALD   CoordSys=GLOBAL   Dir=X   UnifLoad=-2.104
   Area=545   LoadPat=ALD   CoordSys=GLOBAL   Dir=X   UnifLoad=-2.104
   Area=546   LoadPat=ALD   CoordSys=GLOBAL   Dir=X   UnifLoad=-2.104
   Area=547   LoadPat=ALD   CoordSys=GLOBAL   Dir=X   UnifLoad=-2.104
   Area=548   LoadPat=ALD   CoordSys=GLOBAL   Dir=X   UnifLoad=-2.104
   Area=549   LoadPat=ALD   CoordSys=GLOBAL   Dir=X   UnifLoad=-2.104
# ... 304 like lines cut
   Area=1047   LoadPat=Gdat   CoordSys=GLOBAL   Dir=Gravity   UnifLoad=7.02
   Area=1048   LoadPat=Gdat   CoordSys=GLOBAL   Dir=Gravity   UnifLoad=7.02
   Area=1049   LoadPat=Gdat   CoordSys=GLOBAL   Dir=Gravity   UnifLoad=7.02
   Area=1050   LoadPat=Gdat   CoordSys=GLOBAL   Dir=Gravity   UnifLoad=7.02
   Area=1051   LoadPat=Gdat   CoordSys=GLOBAL   Dir=Gravity   UnifLoad=7.02
   Area=1052   LoadPat=Gdat   CoordSys=GLOBAL   Dir=Gravity   UnifLoad=7.02
   Area=1053   LoadPat=Gdat   CoordSys=GLOBAL   Dir=Gravity   UnifLoad=7.02
   Area=1054   LoadPat=Gdat   CoordSys=GLOBAL   Dir=Gravity   UnifLoad=7.02
   Area=1055   LoadPat=Gdat   CoordSys=GLOBAL   Dir=Gravity   UnifLoad=7.02
   Area=1056   LoadPat=Gdat   CoordSys=GLOBAL   Dir=Gravity   UnifLoad=7.02
   Area=1057   LoadPat=Gdat   CoordSys=GLOBAL   Dir=Gravity   UnifLoad=7.02
   Area=1058   LoadPat=Gdat   CoordSys=GLOBAL   Dir=Gravity   UnifLoad=7.02
   Area=1059   LoadPat=Gdat   CoordSys=GLOBAL   Dir=Gravity   UnifLoad=7.02
   Area=1060   LoadPat=Gdat   CoordSys=GLOBAL   Dir=Gravity   UnifLoad=7.02
   Area=1061   LoadPat=Gdat   CoordSys=GLOBAL   Dir=Gravity   UnifLoad=7.02
   Area=1062   LoadPat=Gdat   CoordSys=GLOBAL   Dir=Gravity   UnifLoad=7.02
   Area=1063   LoadPat=Gdat   CoordSys=GLOBAL   Dir=Gravity   UnifLoad=7.02
   Area=1064   LoadPat=Gdat   CoordSys=GLOBAL   Dir=Gravity   UnifLoad=7.02
   Area=1065   LoadPat=Gdat   CoordSys=GLOBAL   Dir=Gravity   UnifLoad=7.02
   Area=1066   LoadPat=Gdat   CoordSys=GLOBAL   Dir=Gravity   UnifLoad=7.02
# ... 269 like lines cut
   Area=1335   LoadPat=HH   CoordSys=GLOBAL   Dir=Gravity   UnifLoad=2
   Area=1336   LoadPat=Gdat   CoordSys=GLOBAL   Dir=Gravity   UnifLoad=7.02
   Area=1336   LoadPat=HH   CoordSys=GLOBAL   Dir=Gravity   UnifLoad=2
   Area=1337   LoadPat=Gdat   CoordSys=GLOBAL   Dir=Gravity   UnifLoad=7.02
   Area=1337   LoadPat=HH   CoordSys=GLOBAL   Dir=Gravity   UnifLoad=2
   Area=1338   LoadPat=Gdat   CoordSys=GLOBAL   Dir=Gravity   UnifLoad=7.02
   Area=1338   LoadPat=HH   CoordSys=GLOBAL   Dir=Gravity   UnifLoad=2
   Area=1339   LoadPat=Gdat   CoordSys=GLOBAL   Dir=Gravity   UnifLoad=7.02
   Area=1339   LoadPat=HH   CoordSys=GLOBAL   Dir=Gravity   UnifLoad=2
   Area=1340   LoadPat=Gdat   CoordSys=GLOBAL   Dir=Gravity   UnifLoad=7.02
   Area=1340   LoadPat=HH   CoordSys=GLOBAL   Dir=Gravity   UnifLoad=2
   Area=1341   LoadPat=Gdat   CoordSys=GLOBAL   Dir=Gravity   UnifLoad=7.02
   Area=1341   LoadPat=HH   CoordSys=GLOBAL   Dir=Gravity   UnifLoad=2
   Area=1342   LoadPat=Gdat   CoordSys=GLOBAL   Dir=Gravity   UnifLoad=7.02
   Area=1342   LoadPat=HH   CoordSys=GLOBAL   Dir=Gravity   UnifLoad=2
   Area=1343   LoadPat=Gdat   CoordSys=GLOBAL   Dir=Gravity   UnifLoad=7.02
   Area=1343   LoadPat=HH   CoordSys=GLOBAL   Dir=Gravity   UnifLoad=2
   Area=1344   LoadPat=Gdat   CoordSys=GLOBAL   Dir=Gravity   UnifLoad=7.02
   Area=1344   LoadPat=HH   CoordSys=GLOBAL   Dir=Gravity   UnifLoad=2
   Area=1345   LoadPat=Gdat   CoordSys=GLOBAL   Dir=Gravity   UnifLoad=7.02
   Area=1345   LoadPat=HH   CoordSys=GLOBAL   Dir=Gravity   UnifLoad=2
   Area=1346   LoadPat=Gdat   CoordSys=GLOBAL   Dir=Gravity   UnifLoad=7.02
   Area=1346   LoadPat=HH   CoordSys=GLOBAL   Dir=Gravity   UnifLoad=2
   Area=1347   LoadPat=Gdat   CoordSys=GLOBAL   Dir=Gravity   UnifLoad=7.02
   Area=1347   LoadPat=HH   CoordSys=GLOBAL   Dir=Gravity   UnifLoad=2
   Area=1348   LoadPat=Gdat   CoordSys=GLOBAL   Dir=Gravity   UnifLoad=7.02
   Area=1348   LoadPat=HH   CoordSys=GLOBAL   Dir=Gravity   UnifLoad=2
   Area=1349   LoadPat=Gdat   CoordSys=GLOBAL   Dir=Gravity   UnifLoad=7.02
   Area=1349   LoadPat=HH   CoordSys=GLOBAL   Dir=Gravity   UnifLoad=2
   Area=1350   LoadPat=Gdat   CoordSys=GLOBAL   Dir=Gravity   UnifLoad=7.02
   Area=1350   LoadPat=HH   CoordSys=GLOBAL   Dir=Gravity   UnifLoad=2
   Area=1351   LoadPat=Gdat   CoordSys=GLOBAL   Dir=Gravity   UnifLoad=7.02
   Area=1351   LoadPat=HH   CoordSys=GLOBAL   Dir=Gravity   UnifLoad=2
   Area=1352   LoadPat=Gdat   CoordSys=GLOBAL   Dir=Gravity   UnifLoad=7.02
   Area=1352   LoadPat=HH   CoordSys=GLOBAL   Dir=Gravity   UnifLoad=2
   Area=1353   LoadPat=Gdat   CoordSys=GLOBAL   Dir=Gravity   UnifLoad=7.02
   Area=1353   LoadPat=HH   CoordSys=GLOBAL   Dir=Gravity   UnifLoad=2
   Area=1354   LoadPat=Gdat   CoordSys=GLOBAL   Dir=Gravity   UnifLoad=7.02
   Area=1354   LoadPat=HH   CoordSys=GLOBAL   Dir=Gravity   UnifLoad=2
   Area=1355   LoadPat=Gdat   CoordSys=GLOBAL   Dir=Gravity   UnifLoad=7.02
# ... 343 like lines cut
 
TABLE:  "AREA SECTION ASSIGNMENTS"
   Area=1   Section=TUONGM30   MatProp=Default
   Area=2   Section=TUONGM30   MatProp=Default
   Area=3   Section=TUONGM30   MatProp=Default
   Area=4   Section=TUONGM30   MatProp=Default
   Area=5   Section=TUONGM30   MatProp=Default
   Area=6   Section=TUONGM30   MatProp=Default
   Area=7   Section=TUONGM30   MatProp=Default
   Area=8   Section=TUONGM30   MatProp=Default
   Area=9   Section=TUONGM30   MatProp=Default
   Area=10   Section=TUONGM30   MatProp=Default
   Area=11   Section=TUONGM30   MatProp=Default
   Area=12   Section=TUONGM30   MatProp=Default
   Area=13   Section=DAY60   MatProp=Default
   Area=14   Section=DAY60   MatProp=Default
   Area=15   Section=DAY60   MatProp=Default
   Area=16   Section=DAY60   MatProp=Default
   Area=17   Section=DAY60   MatProp=Default
   Area=18   Section=DAY60   MatProp=Default
   Area=19   Section=DAY60   MatProp=Default
   Area=20   Section=DAY60   MatProp=Default
   Area=21   Section=DAY60   MatProp=Default
   Area=22   Section=DAY60   MatProp=Default
   Area=23   Section=DAY60   MatProp=Default
   Area=24   Section=DAY60   MatProp=Default
   Area=25   Section=DAY60   MatProp=Default
   Area=26   Section=DAY60   MatProp=Default
   Area=27   Section=DAY60   MatProp=Default
   Area=28   Section=DAY60   MatProp=Default
   Area=29   Section=DAY60   MatProp=Default
   Area=30   Section=DAY60   MatProp=Default
   Area=31   Section=DAY60   MatProp=Default
   Area=32   Section=DAY60   MatProp=Default
# ... 220 like lines cut
   Area=493   Section=TUONGM30   MatProp=Default
   Area=494   Section=TUONGM30   MatProp=Default
   Area=495   Section=TUONGM30   MatProp=Default
   Area=496   Section=TUONGM30   MatProp=Default
   Area=497   Section=TUONGM30   MatProp=Default
   Area=498   Section=TUONGM30   MatProp=Default
   Area=499   Section=TUONGM30   MatProp=Default
   Area=500   Section=TUONGM30   MatProp=Default
   Area=501   Section=TUONGM30   MatProp=Default
   Area=502   Section=TUONGM30   MatProp=Default
   Area=503   Section=TUONGM30   MatProp=Default
   Area=541   Section=TUONGM78   MatProp=Default
   Area=542   Section=TUONGM78   MatProp=Default
   Area=543   Section=TUONGM78   MatProp=Default
   Area=544   Section=TUONGM78   MatProp=Default
   Area=545   Section=TUONGM78   MatProp=Default
   Area=546   Section=TUONGM78   MatProp=Default
   Area=547   Section=TUONGM78   MatProp=Default
   Area=548   Section=TUONGM78   MatProp=Default
   Area=549   Section=TUONGM78   MatProp=Default
# ... 87 like lines cut
   Area=637   Section=GIOCHANXE   MatProp=Default
   Area=638   Section=GIOCHANXE   MatProp=Default
   Area=639   Section=GIOCHANXE   MatProp=Default
   Area=640   Section=GIOCHANXE   MatProp=Default
   Area=641   Section=GIOCHANXE   MatProp=Default
   Area=642   Section=GIOCHANXE   MatProp=Default
   Area=643   Section=GIOCHANXE   MatProp=Default
   Area=644   Section=GIOCHANXE   MatProp=Default
   Area=645   Section=GIOCHANXE   MatProp=Default
   Area=646   Section=GIOCHANXE   MatProp=Default
   Area=647   Section=GIOCHANXE   MatProp=Default
   Area=648   Section=GIOCHANXE   MatProp=Default
   Area=649   Section=GIOCHANXE   MatProp=Default
   Area=650   Section=GIOCHANXE   MatProp=Default
   Area=651   Section=GIOCHANXE   MatProp=Default
   Area=652   Section=GIOCHANXE   MatProp=Default
   Area=653   Section=GIOCHANXE   MatProp=Default
   Area=654   Section=GIOCHANXE   MatProp=Default
   Area=655   Section=GIOCHANXE   MatProp=Default
   Area=656   Section=GIOCHANXE   MatProp=Default
# ... 28 like lines cut
   Area=685   Section=TUONGM30   MatProp=Default
   Area=686   Section=TUONGM30   MatProp=Default
   Area=687   Section=TUONGM30   MatProp=Default
   Area=688   Section=TUONGM30   MatProp=Default
   Area=689   Section=TUONGM30   MatProp=Default
   Area=690   Section=TUONGM30   MatProp=Default
   Area=691   Section=TUONGM30   MatProp=Default
   Area=692   Section=TUONGM30   MatProp=Default
   Area=693   Section=TUONGM30   MatProp=Default
   Area=694   Section=TUONGM30   MatProp=Default
   Area=695   Section=TUONGM30   MatProp=Default
   Area=696   Section=TUONGM30   MatProp=Default
   Area=697   Section=TUONGM30   MatProp=Default
   Area=698   Section=TUONGM30   MatProp=Default
   Area=699   Section=TUONGM30   MatProp=Default
   Area=700   Section=TUONGM30   MatProp=Default
   Area=701   Section=TUONGM30   MatProp=Default
   Area=702   Section=TUONGM30   MatProp=Default
   Area=703   Section=TUONGM30   MatProp=Default
   Area=704   Section=TUONGM30   MatProp=Default
# ... 5 like lines cut
   Area=711   Section=TUONGC30   MatProp=Default
   Area=712   Section=TUONGC30   MatProp=Default
   Area=713   Section=TUONGC30   MatProp=Default
   Area=714   Section=TUONGC30   MatProp=Default
   Area=715   Section=TUONGC30   MatProp=Default
   Area=716   Section=TUONGC30   MatProp=Default
   Area=717   Section=TUONGC30   MatProp=Default
   Area=718   Section=TUONGC30   MatProp=Default
   Area=719   Section=TUONGC30   MatProp=Default
   Area=720   Section=TUONGC30   MatProp=Default
   Area=721   Section=TUONGC30   MatProp=Default
   Area=722   Section=TUONGC30   MatProp=Default
   Area=723   Section=TUONGC30   MatProp=Default
   Area=724   Section=TUONGC30   MatProp=Default
   Area=725   Section=TUONGC30   MatProp=Default
   Area=726   Section=TUONGC30   MatProp=Default
   Area=727   Section=TUONGC30   MatProp=Default
   Area=728   Section=TUONGC30   MatProp=Default
   Area=729   Section=TUONGC30   MatProp=Default
   Area=730   Section=TUONGC30   MatProp=Default
# ... 71 like lines cut
   Area=802   Section=TUONGM43   MatProp=Default
   Area=803   Section=TUONGM43   MatProp=Default
   Area=804   Section=TUONGM43   MatProp=Default
   Area=805   Section=TUONGM43   MatProp=Default
   Area=806   Section=TUONGM43   MatProp=Default
   Area=807   Section=TUONGM43   MatProp=Default
   Area=808   Section=TUONGM43   MatProp=Default
   Area=809   Section=TUONGM43   MatProp=Default
   Area=810   Section=TUONGM43   MatProp=Default
   Area=811   Section=TUONGM43   MatProp=Default
   Area=812   Section=TUONGM43   MatProp=Default
   Area=813   Section=TUONGM43   MatProp=Default
   Area=814   Section=TUONGM43   MatProp=Default
   Area=815   Section=TUONGM43   MatProp=Default
   Area=816   Section=TUONGM43   MatProp=Default
   Area=817   Section=TUONGM43   MatProp=Default
   Area=818   Section=TUONGM43   MatProp=Default
   Area=819   Section=TUONGM43   MatProp=Default
   Area=820   Section=TUONGM43   MatProp=Default
   Area=821   Section=TUONGM43   MatProp=Default
# ... 172 like lines cut
   Area=994   Section=TUONGC30   MatProp=Default
   Area=995   Section=TUONGC30   MatProp=Default
   Area=996   Section=TUONGC30   MatProp=Default
   Area=997   Section=TUONGC30   MatProp=Default
   Area=998   Section=TUONGC30   MatProp=Default
   Area=999   Section=TUONGC30   MatProp=Default
   Area=1000   Section=TUONGC30   MatProp=Default
   Area=1001   Section=TUONGC30   MatProp=Default
   Area=1002   Section=TUONGC30   MatProp=Default
   Area=1003   Section=TUONGC30   MatProp=Default
   Area=1004   Section=TUONGC30   MatProp=Default
   Area=1005   Section=TUONGC30   MatProp=Default
   Area=1006   Section=TUONGC30   MatProp=Default
   Area=1007   Section=TUONGC30   MatProp=Default
   Area=1008   Section=TUONGC30   MatProp=Default
   Area=1009   Section=TUONGC30   MatProp=Default
   Area=1010   Section=TUONGC30   MatProp=Default
   Area=1011   Section=TUONGC30   MatProp=Default
   Area=1012   Section=TUONGC30   MatProp=Default
   Area=1013   Section=TUONGC30   MatProp=Default
# ... 33 like lines cut
   Area=1047   Section=DAY60   MatProp=Default
   Area=1048   Section=DAY60   MatProp=Default
   Area=1049   Section=DAY60   MatProp=Default
   Area=1050   Section=DAY60   MatProp=Default
   Area=1051   Section=DAY60   MatProp=Default
   Area=1052   Section=DAY60   MatProp=Default
   Area=1053   Section=DAY60   MatProp=Default
   Area=1054   Section=DAY60   MatProp=Default
   Area=1055   Section=DAY60   MatProp=Default
   Area=1056   Section=DAY60   MatProp=Default
   Area=1057   Section=DAY60   MatProp=Default
   Area=1058   Section=DAY60   MatProp=Default
   Area=1059   Section=DAY60   MatProp=Default
   Area=1060   Section=DAY60   MatProp=Default
   Area=1061   Section=DAY60   MatProp=Default
   Area=1062   Section=DAY60   MatProp=Default
   Area=1063   Section=DAY60   MatProp=Default
   Area=1064   Section=DAY60   MatProp=Default
   Area=1065   Section=DAY60   MatProp=Default
   Area=1066   Section=DAY60   MatProp=Default
# ... 460 like lines cut
 
TABLE:  "AREA SECTION PROPERTIES"
   Section=DAY130   Material=BTM350   MatAngle=0   AreaType=Shell   Type=Shell-Thin   DrillDOF=No   Thickness=1.01   BendThick=1.01   Color=Green   F11Mod=1   F22Mod=1   F12Mod=1   M11Mod=1   M22Mod=1   M12Mod=1   V13Mod=1   V23Mod=1 _
        MMod=1   WMod=1
   Section=DAY60   Material=BTM350   MatAngle=0   AreaType=Shell   Type=Shell-Thin   DrillDOF=No   Thickness=0.58   BendThick=0.58   Color=Cyan   F11Mod=1   F22Mod=1   F12Mod=1   M11Mod=1   M22Mod=1   M12Mod=1   V13Mod=1   V23Mod=1   MMod=1   WMod=1
   Section=GIOCHANXE   Material=BTM350   MatAngle=0   AreaType=Shell   Type=Shell-Thin   DrillDOF=Yes   Thickness=0.3   BendThick=0.3   Color=16744576   F11Mod=1   F22Mod=1   F12Mod=1   M11Mod=1   M22Mod=1   M12Mod=1   V13Mod=1   V23Mod=1 _
        MMod=1   WMod=1   GUID=82bdc6fe-ce34-46fa-b6dc-eb9069c7f05a   Notes="Added 3/20/2016 10:39:44 PM"
   Section=TUONGC30   Material=BTM350   MatAngle=0   AreaType=Shell   Type=Shell-Thin   DrillDOF=No   Thickness=0.4   BendThick=0.4   Color=Yellow   F11Mod=1   F22Mod=1   F12Mod=1   M11Mod=1   M22Mod=1   M12Mod=1   V13Mod=1   V23Mod=1 _
        MMod=1   WMod=1
   Section=TUONGM30   Material=BTM350   MatAngle=0   AreaType=Shell   Type=Shell-Thin   DrillDOF=No   Thickness=0.2   BendThick=0.2   Color=White   F11Mod=1   F22Mod=1   F12Mod=1   M11Mod=1   M22Mod=1   M12Mod=1   V13Mod=1   V23Mod=1 _
        MMod=1   WMod=1
   Section=TUONGM43   Material=BTM350   MatAngle=0   AreaType=Shell   Type=Shell-Thin   DrillDOF=No   Thickness=0.28   BendThick=0.28   Color=Gray8Dark   F11Mod=1   F22Mod=1   F12Mod=1   M11Mod=1   M22Mod=1   M12Mod=1   V13Mod=1   V23Mod=1 _
        MMod=1   WMod=1
   Section=TUONGM78   Material=BTM350   MatAngle=0   AreaType=Shell   Type=Shell-Thin   DrillDOF=No   Thickness=0.4   BendThick=0.4   Color=Blue   F11Mod=1   F22Mod=1   F12Mod=1   M11Mod=1   M22Mod=1   M12Mod=1   V13Mod=1   V23Mod=1 _
        MMod=1   WMod=1
 
TABLE:  "AREA SECTION PROPERTY DESIGN PARAMETERS"
   Section=DAY130   RebarMat=None   RebarOpt=Default
   Section=DAY60   RebarMat=None   RebarOpt=Default
   Section=GIOCHANXE   RebarMat=None   RebarOpt=Default
   Section=TUONGC30   RebarMat=None   RebarOpt=Default
   Section=TUONGM30   RebarMat=None   RebarOpt=Default
   Section=TUONGM43   RebarMat=None   RebarOpt=Default
   Section=TUONGM78   RebarMat=None   RebarOpt=Default
 
TABLE:  "AREA SECTION PROPERTY - TIME DEPENDENT"
   Section=DAY130   TypeSize=Auto   AutoSFSize=1
   Section=DAY60   TypeSize=Auto   AutoSFSize=1
   Section=GIOCHANXE   TypeSize=User   AutoSFSize=1   UserValSize=0.1
   Section=TUONGC30   TypeSize=Auto   AutoSFSize=1
   Section=TUONGM30   TypeSize=Auto   AutoSFSize=1
   Section=TUONGM43   TypeSize=Auto   AutoSFSize=1
   Section=TUONGM78   TypeSize=Auto   AutoSFSize=1
 
TABLE:  "AUTO WAVE 3 - WAVE CHARACTERISTICS - GENERAL"
   WaveChar=Default   WaveType="From Theory"   KinFactor=1   SWaterDepth=45   WaveHeight=18   WavePeriod=12   WaveTheory=Linear
 
TABLE:  "CASE - MODAL 1 - GENERAL"
   Case=MODAL   ModeType=Eigen   MaxNumModes=12   MinNumModes=1   EigenShift=0   EigenCutoff=0   EigenTol=1E-09   AutoShift=Yes
 
TABLE:  "CASE - STATIC 1 - LOAD ASSIGNMENTS"
   Case=DEAD   LoadType="Load pattern"   LoadName=DEAD   LoadSF=1
   Case=Pdat   LoadType="Load pattern"   LoadName=Pdat   LoadSF=1
   Case=ALD   LoadType="Load pattern"   LoadName=ALD   LoadSF=1
   Case=HH   LoadType="Load pattern"   LoadName=HH   LoadSF=1
 
TABLE:  "COMBINATION DEFINITIONS"
   ComboName=TH1   ComboType="Linear Add"   AutoDesign=No   CaseName=DEAD   ScaleFactor=1   SteelDesign=None   ConcDesign=None   AlumDesign=None   ColdDesign=None   GUID=40a13f11-7da4-439c-9672-d1d05f16eb7f
   ComboName=TH1   CaseName=Gdat   ScaleFactor=1
   ComboName=TH1   CaseName=Pdat   ScaleFactor=1
   ComboName=TH1   CaseName=ALD   ScaleFactor=1
   ComboName=TH2   ComboType="Linear Add"   AutoDesign=No   CaseName=DEAD   ScaleFactor=1   SteelDesign=None   ConcDesign=None   AlumDesign=None   ColdDesign=None   GUID=e0d1fc77-f338-4fc0-a8a9-cef5d5339bd3
   ComboName=TH2   CaseName=Gdat   ScaleFactor=1
   ComboName=TH2   CaseName=Pdat   ScaleFactor=1
   ComboName=TH2   CaseName=ALD   ScaleFactor=1
   ComboName=TH2   CaseName=HH   ScaleFactor=1
   ComboName=BAO   ComboType=Envelope   AutoDesign=No   CaseName=TH1   ScaleFactor=1   SteelDesign=None   ConcDesign=None   AlumDesign=None   ColdDesign=None   GUID=dacad6c0-aa0f-4337-8aba-71469a0efcd1
   ComboName=BAO   CaseName=TH2   ScaleFactor=1
 
TABLE:  "CONNECTIVITY - AREA"
   Area=1   Joint1=287   Joint2=296   Joint3=299   Joint4=867
   Area=2   Joint1=296   Joint2=288   Joint3=866   Joint4=299
   Area=3   Joint1=867   Joint2=299   Joint3=302   Joint4=869
   Area=4   Joint1=299   Joint2=866   Joint3=868   Joint4=302
   Area=5   Joint1=869   Joint2=302   Joint3=305   Joint4=295
   Area=6   Joint1=302   Joint2=868   Joint3=870   Joint4=305
   Area=7   Joint1=295   Joint2=305   Joint3=308   Joint4=872
   Area=8   Joint1=305   Joint2=870   Joint3=871   Joint4=308
   Area=9   Joint1=872   Joint2=308   Joint3=311   Joint4=874
   Area=10   Joint1=308   Joint2=871   Joint3=873   Joint4=311
   Area=11   Joint1=874   Joint2=311   Joint3=314   Joint4=876
   Area=12   Joint1=311   Joint2=873   Joint3=875   Joint4=314
   Area=13   Joint1=319   Joint2=285   Joint3=2   Joint4=320
   Area=14   Joint1=320   Joint2=2   Joint3=321   Joint4=322
   Area=15   Joint1=322   Joint2=321   Joint3=222   Joint4=323
   Area=16   Joint1=323   Joint2=222   Joint3=324   Joint4=325
   Area=17   Joint1=325   Joint2=324   Joint3=10   Joint4=326
   Area=18   Joint1=326   Joint2=10   Joint3=327   Joint4=328
   Area=19   Joint1=328   Joint2=327   Joint3=18   Joint4=329
   Area=20   Joint1=329   Joint2=18   Joint3=330   Joint4=331
# ... 414 like lines cut
   Area=713   Joint1=747   Joint2=759   Joint3=762
   Area=714   Joint1=759   Joint2=758   Joint3=763   Joint4=762
   Area=715   Joint1=758   Joint2=760   Joint3=764   Joint4=765
   Area=715   Joint1=763
   Area=716   Joint1=760   Joint2=757   Joint3=764
   Area=717   Joint1=757   Joint2=756   Joint3=766   Joint4=764
   Area=718   Joint1=756   Joint2=297   Joint3=754   Joint4=766
   Area=719   Joint1=754   Joint2=394   Joint3=767   Joint4=766
   Area=720   Joint1=394   Joint2=752   Joint3=768   Joint4=767
   Area=721   Joint1=752   Joint2=222   Joint3=954   Joint4=768
   Area=722   Joint1=954   Joint2=1073   Joint3=769   Joint4=768
   Area=723   Joint1=1073   Joint2=1075   Joint3=770   Joint4=769
   Area=724   Joint1=1075   Joint2=1077   Joint3=761   Joint4=770
   Area=725   Joint1=767   Joint2=768   Joint3=769   Joint4=765
   Area=726   Joint1=766   Joint2=767   Joint3=765   Joint4=764
   Area=727   Joint1=763   Joint2=765   Joint3=769   Joint4=770
   Area=728   Joint1=762   Joint2=763   Joint3=770   Joint4=761
   Area=729   Joint1=298   Joint2=773   Joint3=780   Joint4=1088
   Area=730   Joint1=773   Joint2=771   Joint3=781   Joint4=780
   Area=731   Joint1=771   Joint2=778   Joint3=781
   Area=732   Joint1=778   Joint2=777   Joint3=782   Joint4=781
   Area=733   Joint1=777   Joint2=779   Joint3=783   Joint4=784
   Area=733   Joint1=782
   Area=734   Joint1=779   Joint2=776   Joint3=783
   Area=735   Joint1=776   Joint2=775   Joint3=785   Joint4=783
   Area=736   Joint1=775   Joint2=300   Joint3=774   Joint4=785
   Area=737   Joint1=774   Joint2=400   Joint3=786   Joint4=785
   Area=738   Joint1=400   Joint2=772   Joint3=787   Joint4=786
   Area=739   Joint1=772   Joint2=230   Joint3=960   Joint4=787
   Area=740   Joint1=960   Joint2=1096   Joint3=788   Joint4=787
   Area=741   Joint1=1096   Joint2=1097   Joint3=789   Joint4=788
   Area=742   Joint1=1097   Joint2=1088   Joint3=780   Joint4=789
   Area=743   Joint1=786   Joint2=787   Joint3=788   Joint4=784
   Area=744   Joint1=785   Joint2=786   Joint3=784   Joint4=783
   Area=745   Joint1=782   Joint2=784   Joint3=788   Joint4=789
   Area=746   Joint1=781   Joint2=782   Joint3=789   Joint4=780
   Area=747   Joint1=301   Joint2=792   Joint3=799   Joint4=1100
   Area=748   Joint1=792   Joint2=790   Joint3=800   Joint4=799
   Area=749   Joint1=790   Joint2=797   Joint3=800
   Area=750   Joint1=797   Joint2=796   Joint3=801   Joint4=800
   Area=751   Joint1=796   Joint2=798   Joint3=802   Joint4=803
   Area=751   Joint1=801
   Area=752   Joint1=798   Joint2=795   Joint3=802
   Area=753   Joint1=795   Joint2=794   Joint3=804   Joint4=802
   Area=754   Joint1=794   Joint2=303   Joint3=793   Joint4=804
   Area=755   Joint1=793   Joint2=406   Joint3=805   Joint4=804
   Area=756   Joint1=406   Joint2=791   Joint3=806   Joint4=805
   Area=757   Joint1=791   Joint2=238   Joint3=966   Joint4=806
   Area=758   Joint1=966   Joint2=1108   Joint3=807   Joint4=806
   Area=759   Joint1=1108   Joint2=1109   Joint3=808   Joint4=807
   Area=760   Joint1=1109   Joint2=1100   Joint3=799   Joint4=808
   Area=761   Joint1=805   Joint2=806   Joint3=807   Joint4=803
   Area=762   Joint1=804   Joint2=805   Joint3=803   Joint4=802
   Area=763   Joint1=801   Joint2=803   Joint3=807   Joint4=808
   Area=764   Joint1=800   Joint2=801   Joint3=808   Joint4=799
   Area=765   Joint1=304   Joint2=811   Joint3=818   Joint4=1112
   Area=766   Joint1=811   Joint2=809   Joint3=819   Joint4=818
   Area=767   Joint1=809   Joint2=816   Joint3=819
   Area=768   Joint1=816   Joint2=815   Joint3=820   Joint4=819
   Area=769   Joint1=815   Joint2=817   Joint3=821   Joint4=822
   Area=769   Joint1=820
   Area=770   Joint1=817   Joint2=814   Joint3=821
   Area=771   Joint1=814   Joint2=813   Joint3=823   Joint4=821
   Area=772   Joint1=813   Joint2=306   Joint3=812   Joint4=823
   Area=773   Joint1=812   Joint2=412   Joint3=824   Joint4=823
   Area=774   Joint1=412   Joint2=810   Joint3=825   Joint4=824
   Area=775   Joint1=810   Joint2=246   Joint3=972   Joint4=825
   Area=776   Joint1=972   Joint2=1120   Joint3=826   Joint4=825
   Area=777   Joint1=1120   Joint2=1121   Joint3=827   Joint4=826
   Area=778   Joint1=1121   Joint2=1112   Joint3=818   Joint4=827
   Area=779   Joint1=824   Joint2=825   Joint3=826   Joint4=822
   Area=780   Joint1=823   Joint2=824   Joint3=822   Joint4=821
   Area=781   Joint1=820   Joint2=822   Joint3=826   Joint4=827
   Area=782   Joint1=819   Joint2=820   Joint3=827   Joint4=818
   Area=783   Joint1=307   Joint2=830   Joint3=837   Joint4=1124
   Area=784   Joint1=830   Joint2=828   Joint3=838   Joint4=837
   Area=785   Joint1=828   Joint2=835   Joint3=838
   Area=786   Joint1=835   Joint2=834   Joint3=839   Joint4=838
   Area=787   Joint1=834   Joint2=836   Joint3=840   Joint4=841
   Area=787   Joint1=839
   Area=788   Joint1=836   Joint2=833   Joint3=840
   Area=789   Joint1=833   Joint2=832   Joint3=842   Joint4=840
   Area=790   Joint1=832   Joint2=309   Joint3=831   Joint4=842
   Area=791   Joint1=831   Joint2=418   Joint3=843   Joint4=842
   Area=792   Joint1=418   Joint2=829   Joint3=844   Joint4=843
   Area=793   Joint1=829   Joint2=254   Joint3=978   Joint4=844
   Area=794   Joint1=978   Joint2=1132   Joint3=845   Joint4=844
   Area=795   Joint1=1132   Joint2=1133   Joint3=846   Joint4=845
   Area=796   Joint1=1133   Joint2=1124   Joint3=837   Joint4=846
   Area=797   Joint1=843   Joint2=844   Joint3=845   Joint4=841
   Area=798   Joint1=842   Joint2=843   Joint3=841   Joint4=840
   Area=799   Joint1=839   Joint2=841   Joint3=845   Joint4=846
   Area=800   Joint1=838   Joint2=839   Joint3=846   Joint4=837
   Area=801   Joint1=310   Joint2=849   Joint3=856   Joint4=1136
   Area=802   Joint1=286   Joint2=1176   Joint3=1177   Joint4=952
   Area=803   Joint1=1176   Joint2=1178   Joint3=1179   Joint4=1177
   Area=804   Joint1=1178   Joint2=1180   Joint3=1181   Joint4=1179
   Area=805   Joint1=1180   Joint2=287   Joint3=867   Joint4=1181
   Area=806   Joint1=952   Joint2=1177   Joint3=1182   Joint4=953
   Area=807   Joint1=1177   Joint2=1179   Joint3=1183   Joint4=1182
   Area=808   Joint1=1179   Joint2=1181   Joint3=1184   Joint4=1183
# ... 186 like lines cut
   Area=995   Joint1=847   Joint2=854   Joint3=857
   Area=996   Joint1=854   Joint2=853   Joint3=858   Joint4=857
   Area=997   Joint1=853   Joint2=855   Joint3=859   Joint4=860
   Area=997   Joint1=858
   Area=998   Joint1=855   Joint2=852   Joint3=859
   Area=999   Joint1=852   Joint2=851   Joint3=861   Joint4=859
   Area=1000   Joint1=851   Joint2=312   Joint3=850   Joint4=861
   Area=1001   Joint1=850   Joint2=424   Joint3=862   Joint4=861
   Area=1002   Joint1=424   Joint2=848   Joint3=863   Joint4=862
   Area=1003   Joint1=848   Joint2=262   Joint3=984   Joint4=863
   Area=1004   Joint1=984   Joint2=1144   Joint3=864   Joint4=863
   Area=1005   Joint1=1144   Joint2=1145   Joint3=865   Joint4=864
   Area=1006   Joint1=1145   Joint2=1136   Joint3=856   Joint4=865
   Area=1007   Joint1=862   Joint2=863   Joint3=864   Joint4=860
   Area=1008   Joint1=861   Joint2=862   Joint3=860   Joint4=859
   Area=1009   Joint1=858   Joint2=860   Joint3=864   Joint4=865
   Area=1010   Joint1=857   Joint2=858   Joint3=865   Joint4=856
   Area=1011   Joint1=313   Joint2=1048   Joint3=1055   Joint4=1148
   Area=1012   Joint1=1048   Joint2=1046   Joint3=1056   Joint4=1055
   Area=1013   Joint1=1046   Joint2=1053   Joint3=1056
   Area=1014   Joint1=1053   Joint2=1052   Joint3=1057   Joint4=1056
   Area=1015   Joint1=1052   Joint2=1054   Joint3=1058   Joint4=1059
   Area=1015   Joint1=1057
   Area=1016   Joint1=1054   Joint2=1051   Joint3=1058
   Area=1017   Joint1=1051   Joint2=1050   Joint3=1060   Joint4=1058
   Area=1018   Joint1=1050   Joint2=315   Joint3=1049   Joint4=1060
   Area=1019   Joint1=1049   Joint2=430   Joint3=1061   Joint4=1060
   Area=1020   Joint1=430   Joint2=1047   Joint3=1062   Joint4=1061
   Area=1021   Joint1=1047   Joint2=270   Joint3=990   Joint4=1062
   Area=1022   Joint1=990   Joint2=1156   Joint3=1063   Joint4=1062
   Area=1023   Joint1=1156   Joint2=1157   Joint3=1064   Joint4=1063
   Area=1024   Joint1=1157   Joint2=1148   Joint3=1055   Joint4=1064
   Area=1025   Joint1=1061   Joint2=1062   Joint3=1063   Joint4=1059
   Area=1026   Joint1=1060   Joint2=1061   Joint3=1059   Joint4=1058
   Area=1027   Joint1=1057   Joint2=1059   Joint3=1063   Joint4=1064
   Area=1028   Joint1=1056   Joint2=1057   Joint3=1064   Joint4=1055
   Area=1029   Joint1=316   Joint2=1067   Joint3=1076   Joint4=1160
   Area=1030   Joint1=1067   Joint2=1065   Joint3=1078   Joint4=1076
   Area=1031   Joint1=1065   Joint2=1072   Joint3=1078
   Area=1032   Joint1=1072   Joint2=1071   Joint3=1079   Joint4=1078
   Area=1033   Joint1=1071   Joint2=1074   Joint3=1080   Joint4=1081
   Area=1033   Joint1=1079
   Area=1034   Joint1=1074   Joint2=1070   Joint3=1080
   Area=1035   Joint1=1070   Joint2=1069   Joint3=1082   Joint4=1080
   Area=1036   Joint1=1069   Joint2=318   Joint3=1068   Joint4=1082
   Area=1037   Joint1=1068   Joint2=436   Joint3=1083   Joint4=1082
   Area=1038   Joint1=436   Joint2=1066   Joint3=1084   Joint4=1083
   Area=1039   Joint1=1066   Joint2=278   Joint3=996   Joint4=1084
   Area=1040   Joint1=996   Joint2=1168   Joint3=1085   Joint4=1084
   Area=1041   Joint1=1168   Joint2=1169   Joint3=1086   Joint4=1085
   Area=1042   Joint1=1169   Joint2=1160   Joint3=1076   Joint4=1086
   Area=1043   Joint1=1083   Joint2=1084   Joint3=1085   Joint4=1081
   Area=1044   Joint1=1082   Joint2=1083   Joint3=1081   Joint4=1080
   Area=1045   Joint1=1079   Joint2=1081   Joint3=1085   Joint4=1086
   Area=1046   Joint1=1078   Joint2=1079   Joint3=1086   Joint4=1076
   Area=1047   Joint1=285   Joint2=1087   Joint3=1089   Joint4=2
   Area=1048   Joint1=1087   Joint2=391   Joint3=392   Joint4=1089
   Area=1049   Joint1=2   Joint2=1089   Joint3=1090   Joint4=321
   Area=1050   Joint1=1089   Joint2=392   Joint3=393   Joint4=1090
   Area=1051   Joint1=321   Joint2=1090   Joint3=752   Joint4=222
   Area=1052   Joint1=1090   Joint2=393   Joint3=394   Joint4=752
   Area=1053   Joint1=222   Joint2=752   Joint3=1091   Joint4=324
   Area=1054   Joint1=752   Joint2=394   Joint3=395   Joint4=1091
# ... 472 like lines cut
 
TABLE:  "CONNECTIVITY - FRAME"
   Frame=74   JointI=155   JointJ=2   IsCurved=No   GUID=688240f7-2a4d-4192-adb4-7c19e260ed5e
   Frame=75   JointI=157   JointJ=4   IsCurved=No   GUID=89496dce-095d-4fef-a1fa-355482c8242a
   Frame=76   JointI=159   JointJ=6   IsCurved=No   GUID=ad085471-3ee0-4587-bb12-9c4024a07b4a
   Frame=77   JointI=161   JointJ=8   IsCurved=No   GUID=c377b419-2eab-4550-b53d-49c3266b2140
   Frame=82   JointI=171   JointJ=10   IsCurved=No   GUID=bd1545fd-5208-4448-af81-3ae5d7e970fb
   Frame=83   JointI=173   JointJ=12   IsCurved=No   GUID=45a856bf-faa1-4300-a824-e9f919758348
   Frame=84   JointI=175   JointJ=14   IsCurved=No   GUID=bf8a39a4-b585-4a77-baa5-accfa6220670
   Frame=85   JointI=177   JointJ=16   IsCurved=No   GUID=3666f299-80ef-48ba-986b-bc80771e717d
   Frame=86   JointI=179   JointJ=18   IsCurved=No   GUID=57e531ed-5d57-44dd-b38b-2a0bd606d97b
   Frame=87   JointI=181   JointJ=20   IsCurved=No   GUID=192b9422-2fb5-4bd7-a3d4-b5a6f4bb8fcf
   Frame=88   JointI=183   JointJ=22   IsCurved=No   GUID=89391979-4bf7-41da-88f0-4e7cfc7df088
   Frame=89   JointI=185   JointJ=24   IsCurved=No   GUID=a2704b9c-13fa-4213-a4b6-10a6eac7229c
   Frame=90   JointI=187   JointJ=26   IsCurved=No   GUID=610b16f0-1160-42a4-9a98-b66966cea877
   Frame=91   JointI=189   JointJ=28   IsCurved=No   GUID=1a3de9e8-68a2-4990-95be-f93246727f52
   Frame=92   JointI=191   JointJ=30   IsCurved=No   GUID=a61d71c2-8e83-470a-8fd7-a91fa873341f
   Frame=93   JointI=193   JointJ=32   IsCurved=No   GUID=b9bd0260-b406-46e0-90d4-f3e1cd29a335
   Frame=94   JointI=195   JointJ=34   IsCurved=No   GUID=cc92fa83-1734-4044-a7f4-38a89376d620
   Frame=95   JointI=197   JointJ=36   IsCurved=No   GUID=ee34c6b6-5eca-4314-bb0b-c8cd1e20f5b0
   Frame=96   JointI=199   JointJ=38   IsCurved=No   GUID=1da75851-9910-43cf-bed0-4a35bebe7442
   Frame=97   JointI=201   JointJ=40   IsCurved=No   GUID=d7b4ca88-cc50-415c-b0c2-c3333b3fbc83
   Frame=98   JointI=203   JointJ=42   IsCurved=No   GUID=619d90d4-d0cc-4035-b45f-c1dccc960b84
   Frame=99   JointI=205   JointJ=44   IsCurved=No   GUID=6b135176-447e-4007-b0a9-023f043dbc2e
   Frame=100   JointI=207   JointJ=46   IsCurved=No   GUID=298de13f-0b13-47ca-b923-811b35e0b750
   Frame=101   JointI=209   JointJ=48   IsCurved=No   GUID=d2995882-d0f2-47f7-a389-85c8f9a427b3
   Frame=102   JointI=211   JointJ=50   IsCurved=No   GUID=1db602d9-39d5-4ae2-8b1f-86e999cccf8f
   Frame=103   JointI=213   JointJ=52   IsCurved=No   GUID=58fe7435-74ac-4f49-8c04-c959a8267418
   Frame=104   JointI=215   JointJ=54   IsCurved=No   GUID=dd58069c-6e86-4c7e-bb51-9fbce1c3c350
   Frame=105   JointI=217   JointJ=56   IsCurved=No   GUID=e539deee-ff29-4145-a8b2-afab532fdec3
   Frame=106   JointI=219   JointJ=58   IsCurved=No   GUID=82fc6e7f-e8f4-4c4f-9ee3-05f3e12af784
   Frame=107   JointI=221   JointJ=60   IsCurved=No   GUID=3eedd96d-fa53-4e9f-8f6a-dd2258788a48
   Frame=108   JointI=223   JointJ=62   IsCurved=No   GUID=4b4ff391-52c2-461b-985c-d3f3b7f71fb8
   Frame=109   JointI=225   JointJ=64   IsCurved=No   GUID=ae15587c-5f45-4bfe-b082-b68f334d1c79
   Frame=110   JointI=227   JointJ=66   IsCurved=No   GUID=53a3c2e8-0127-4643-a6cf-f6b28eee67ca
   Frame=111   JointI=229   JointJ=68   IsCurved=No   GUID=103507c7-8293-41f9-b10b-d788dc6f671a
   Frame=112   JointI=231   JointJ=70   IsCurved=No   GUID=da253428-ee72-4884-a32d-d5a737b70e1c
   Frame=113   JointI=233   JointJ=72   IsCurved=No   GUID=18dfd2cf-c734-4d95-abb1-4cebf153fac9
   Frame=114   JointI=235   JointJ=74   IsCurved=No   GUID=a79ec287-ae1f-4bfe-95e7-22d334916294
   Frame=115   JointI=237   JointJ=76   IsCurved=No   GUID=1c5a047e-f953-42d4-96a3-9bd335fd61a8
   Frame=116   JointI=239   JointJ=78   IsCurved=No   GUID=3dc2533a-03ae-4e51-b111-53282dec9918
   Frame=117   JointI=241   JointJ=80   IsCurved=No   GUID=976e44fb-83b6-4ac8-8c07-9d3358d6d4c8
   Frame=118   JointI=243   JointJ=82   IsCurved=No   GUID=b9a30f6f-bf0f-4f35-9833-ec9277147d72
   Frame=119   JointI=245   JointJ=84   IsCurved=No   GUID=3b302f1d-c021-473f-b861-7ceee2811fbc
   Frame=120   JointI=247   JointJ=86   IsCurved=No   GUID=a3c539c4-600b-4082-b380-146f3bb5289a
   Frame=121   JointI=249   JointJ=88   IsCurved=No   GUID=3bec9de2-c389-4ed6-9e4f-9f6944a84da2
   Frame=122   JointI=251   JointJ=90   IsCurved=No   GUID=ea2b88d6-d0d1-4c83-8649-c3f6b15465ad
   Frame=123   JointI=253   JointJ=92   IsCurved=No   GUID=f334ced0-dd0d-4a93-a84b-52a5e5b1fd85
   Frame=124   JointI=255   JointJ=94   IsCurved=No   GUID=4446da7c-1817-444d-8d45-8e25a1bca72d
   Frame=125   JointI=257   JointJ=96   IsCurved=No   GUID=279daad3-f00a-48cd-bfbc-b100f43b82a5
   Frame=126   JointI=259   JointJ=98   IsCurved=No   GUID=9d9d537c-fa42-431e-882d-863ed8086800
   Frame=127   JointI=261   JointJ=100   IsCurved=No   GUID=3fdde5fe-034c-4cc2-849f-7b79858de3f1
   Frame=128   JointI=263   JointJ=102   IsCurved=No   GUID=bf9c9974-818a-411d-9142-fceebbd2a8ca
   Frame=129   JointI=265   JointJ=104   IsCurved=No   GUID=e4d16e6a-7c13-44dc-a336-aa439348a432
   Frame=130   JointI=267   JointJ=106   IsCurved=No   GUID=019c4621-931f-4f99-93c3-5ae0cfb73725
   Frame=131   JointI=269   JointJ=108   IsCurved=No   GUID=afa909fd-87e2-42d3-b2db-9fce6639fd29
   Frame=132   JointI=271   JointJ=110   IsCurved=No   GUID=82e1177b-d871-4b77-afac-4b853f42e098
   Frame=133   JointI=273   JointJ=112   IsCurved=No   GUID=466434b4-c1fc-4572-9229-a1792bfc8552
   Frame=134   JointI=275   JointJ=114   IsCurved=No   GUID=487e9e52-ae47-455f-9027-a38e4c1d6431
   Frame=135   JointI=277   JointJ=116   IsCurved=No   GUID=2eb997f7-8a15-4df0-b1a8-4695e952851c
   Frame=136   JointI=279   JointJ=118   IsCurved=No   GUID=cc49dd50-e77f-41e6-83f4-54f081f229a3
   Frame=137   JointI=281   JointJ=120   IsCurved=No   GUID=93ec77c4-62df-4db4-8ef3-bb6fe0eff99b
   Frame=138   JointI=283   JointJ=122   IsCurved=No   GUID=3825798a-0f55-4d8e-8bf3-0167be68af44
   Frame=139   JointI=748   JointJ=124   IsCurved=No   GUID=7669132b-3ed2-41f0-acd9-8e993aa265ac
   Frame=140   JointI=749   JointJ=126   IsCurved=No   GUID=2c4fb0c9-ce50-457b-94e1-a39f13a045be
   Frame=141   JointI=750   JointJ=128   IsCurved=No   GUID=24ccd5de-8a01-40f9-bd5f-161ed954d621
   Frame=142   JointI=751   JointJ=130   IsCurved=No   GUID=ae3bf985-201b-492f-9531-815ea283731c
   Frame=143   JointI=755   JointJ=132   IsCurved=No   GUID=4b26a19e-162a-4bd7-bae2-7b378163bff4
   Frame=144   JointI=1460   JointJ=134   IsCurved=No   GUID=9375c0c0-9df3-49ee-b49d-cedee5ba6569
   Frame=145   JointI=1461   JointJ=136   IsCurved=No   GUID=60dea230-a433-4a90-847c-a5557d36b0b2
   Frame=146   JointI=1462   JointJ=138   IsCurved=No   GUID=0d4d788b-063d-439c-b5c5-53f4208a20ff
   Frame=147   JointI=1463   JointJ=140   IsCurved=No   GUID=787bb7f7-5a6e-4333-9d0b-ec6b7272fc32
   Frame=148   JointI=1464   JointJ=142   IsCurved=No   GUID=d04ffbc1-d5f2-4cba-bbf8-cf4553a5216e
   Frame=149   JointI=1465   JointJ=144   IsCurved=No   GUID=e88142ef-ab58-4386-a239-ce40659bde85
   Frame=150   JointI=1466   JointJ=146   IsCurved=No   GUID=510bd2b0-2bc9-4cfe-9bfa-6fcfc34f2191
   Frame=151   JointI=1467   JointJ=148   IsCurved=No   GUID=8cea410d-fbc6-428a-b8ed-a6f6d66d3d29
   Frame=152   JointI=1468   JointJ=150   IsCurved=No   GUID=6265e49b-7765-4e3c-b1e8-d2be9ace81ac
   Frame=153   JointI=1469   JointJ=152   IsCurved=No   GUID=cb3ccf43-2f5a-49d9-a4f9-1e73433eeaed
   Frame=154   JointI=1470   JointJ=154   IsCurved=No   GUID=fffd4dd9-cf80-4a8e-a03c-e232916ccb71
   Frame=155   JointI=1471   JointJ=156   IsCurved=No   GUID=b018cfcc-b2ab-4f28-ab1d-91e46ab9b37c
   Frame=156   JointI=1472   JointJ=158   IsCurved=No   GUID=249efc12-4eed-41a5-b49f-ab2e1e392c46
   Frame=157   JointI=1473   JointJ=160   IsCurved=No   GUID=a00903e4-861e-44b0-a7c7-d56ccbfd0ca2
   Frame=158   JointI=1474   JointJ=162   IsCurved=No   GUID=8525a870-218f-4551-a46f-b403a2debe37
   Frame=159   JointI=1475   JointJ=164   IsCurved=No   GUID=a30c2a7e-b2e8-4450-baa0-bd173cf735c1
   Frame=160   JointI=1476   JointJ=166   IsCurved=No   GUID=776e245c-7099-44f0-997f-daf0cf2b2f8d
   Frame=161   JointI=1477   JointJ=168   IsCurved=No   GUID=dbf9c88b-b80d-41cc-907e-1c754517ef14
   Frame=162   JointI=1478   JointJ=170   IsCurved=No   GUID=907737cf-a74a-4e66-bfba-a8c03f8eb017
   Frame=163   JointI=1479   JointJ=172   IsCurved=No   GUID=f4fa6d05-6645-4853-91ed-eaee7dd671b8
   Frame=164   JointI=1480   JointJ=174   IsCurved=No   GUID=577c4730-a09f-4284-b7eb-b4dffef2cd6c
   Frame=165   JointI=1481   JointJ=176   IsCurved=No   GUID=e0e74d2a-ec98-42f0-b1f6-7b6943d6eab5
   Frame=166   JointI=1482   JointJ=178   IsCurved=No   GUID=f987279f-537a-4ab2-abac-2e9b23d01039
   Frame=167   JointI=1483   JointJ=180   IsCurved=No   GUID=61ac0289-eeb6-4336-8940-a783f42d24c3
   Frame=168   JointI=1484   JointJ=182   IsCurved=No   GUID=b3c8499f-b1ff-47f0-a43c-a6f6100764b3
   Frame=169   JointI=1485   JointJ=184   IsCurved=No   GUID=58f08861-3e29-4236-9597-e7abb91ead59
   Frame=170   JointI=1486   JointJ=186   IsCurved=No   GUID=da48207f-4b31-4cf9-b6ea-515833a149b3
   Frame=171   JointI=1487   JointJ=188   IsCurved=No   GUID=06eef403-b7bd-4ff6-b665-6e6f9393ee17
   Frame=172   JointI=1488   JointJ=190   IsCurved=No   GUID=04544608-55b0-44c0-8b01-bbcee4f04d35
   Frame=173   JointI=1489   JointJ=192   IsCurved=No   GUID=37ae2ad3-ef02-4a81-87af-4462cc491a4b
   Frame=174   JointI=1490   JointJ=194   IsCurved=No   GUID=7714715b-b9fe-4718-b753-3a4b185b06ae
   Frame=175   JointI=1491   JointJ=196   IsCurved=No   GUID=fcac57bb-5685-47e9-bcf1-d3b0cf8623d1
   Frame=176   JointI=1492   JointJ=198   IsCurved=No   GUID=a8d22c94-e207-43ee-8a29-d56e262d8d63
   Frame=177   JointI=1493   JointJ=200   IsCurved=No   GUID=9b994fdf-b4f3-4e20-841a-03f58de591b8
   Frame=178   JointI=1494   JointJ=202   IsCurved=No   GUID=760f250c-f5ab-4a99-8fa7-bebac6351588
   Frame=179   JointI=1495   JointJ=204   IsCurved=No   GUID=c5abda56-ccc7-4755-ba68-e65b08505b39
   Frame=180   JointI=1496   JointJ=206   IsCurved=No   GUID=af9cbd58-95b0-43e0-8068-2f556a88ee72
   Frame=181   JointI=1497   JointJ=208   IsCurved=No   GUID=f946d883-9ed7-412c-9068-6f96000f6a94
   Frame=182   JointI=1498   JointJ=210   IsCurved=No   GUID=7d8a38d3-e09d-4a69-9da0-ffb47b72c99c
   Frame=183   JointI=1499   JointJ=212   IsCurved=No   GUID=1cef899c-f9ca-4bf3-b313-aca9417b36ee
   Frame=184   JointI=1500   JointJ=214   IsCurved=No   GUID=ba3ef19d-d070-4190-abd4-db5e74225e61
   Frame=185   JointI=1501   JointJ=216   IsCurved=No   GUID=6155e85f-1037-4855-907d-b4e0da34f5f8
   Frame=186   JointI=1502   JointJ=218   IsCurved=No   GUID=cb06b00e-c8d0-4c15-8254-bc172afc3356
   Frame=187   JointI=1503   JointJ=220   IsCurved=No   GUID=66828e4d-a1b6-49ec-a41f-8f20c2e86981
   Frame=189   JointI=1505   JointJ=224   IsCurved=No   GUID=9239def2-001f-4742-b9d3-5e308a8825d2
   Frame=191   JointI=1507   JointJ=228   IsCurved=No   GUID=fcc70d5d-49d8-41b1-bd0d-f818a899fe09
   Frame=192   JointI=1508   JointJ=226   IsCurved=No   GUID=8a69d9e7-4291-472c-acba-2f6212abe16a
   Frame=193   JointI=1509   JointJ=222   IsCurved=No   GUID=0c321e95-e90f-43e1-944a-3261d07bc207
   Frame=194   JointI=1510   JointJ=232   IsCurved=No   GUID=349a957f-776c-4f91-b504-f9a412e6d578
   Frame=195   JointI=1511   JointJ=236   IsCurved=No   GUID=336580f5-ff49-47c1-b3c1-93bf0eb0e71f
   Frame=196   JointI=1512   JointJ=234   IsCurved=No   GUID=a25c5d2a-175a-4b26-87e8-38ff8778f928
   Frame=197   JointI=1513   JointJ=230   IsCurved=No   GUID=f5d0ad03-9887-4738-8210-0d51de8b6bb1
   Frame=198   JointI=1514   JointJ=240   IsCurved=No   GUID=f116a726-7bcb-4feb-900c-6d8a8c832604
   Frame=199   JointI=1515   JointJ=244   IsCurved=No   GUID=7b1d5f23-d6ef-4252-9373-17dd4f5e606a
   Frame=200   JointI=1516   JointJ=242   IsCurved=No   GUID=7d2ee72e-bcef-4f3e-91a7-72ef8ff57399
   Frame=201   JointI=1517   JointJ=238   IsCurved=No   GUID=5d822a00-f777-4784-9839-e0dadbc1de74
   Frame=202   JointI=1518   JointJ=248   IsCurved=No   GUID=df44864a-a99c-458f-95d4-cea468621963
   Frame=203   JointI=1519   JointJ=252   IsCurved=No   GUID=4b350dab-6b00-4ea2-9d67-ec80e7e060ec
   Frame=204   JointI=1520   JointJ=250   IsCurved=No   GUID=6e45cf88-f9cf-4736-abfd-28b6c75dcb52
   Frame=205   JointI=1521   JointJ=246   IsCurved=No   GUID=5f7ab445-5b13-41cb-aeb0-db86aa4d35c2
   Frame=206   JointI=1522   JointJ=256   IsCurved=No   GUID=1837e166-cb9f-456e-afb0-c36ba6e363b0
   Frame=207   JointI=1523   JointJ=260   IsCurved=No   GUID=10d8c039-6ea9-47b7-bcfa-7a8f0aa79ccd
   Frame=208   JointI=1524   JointJ=258   IsCurved=No   GUID=dca90ec1-de43-4e33-949f-3b1522318ac0
   Frame=209   JointI=1525   JointJ=254   IsCurved=No   GUID=c2425e37-e68a-4df5-b054-41e021ad00bc
   Frame=210   JointI=1526   JointJ=264   IsCurved=No   GUID=7a2b3e20-3f62-4ad5-8d70-99af1dc77b83
   Frame=211   JointI=1527   JointJ=268   IsCurved=No   GUID=7a1f3e55-b3f6-4b0f-a7c7-19111fddf3f1
   Frame=212   JointI=1528   JointJ=266   IsCurved=No   GUID=7393fbb0-9528-449d-b8e2-2ee6b4cae52f
   Frame=213   JointI=1529   JointJ=262   IsCurved=No   GUID=f5da1c0f-76fd-4261-b565-474dcec03fea
   Frame=214   JointI=1530   JointJ=272   IsCurved=No   GUID=ed21daf6-5a95-46d4-bcef-de67f10429db
   Frame=215   JointI=1531   JointJ=276   IsCurved=No   GUID=58653d59-37eb-46db-9366-e399160d0c1e
   Frame=216   JointI=1532   JointJ=274   IsCurved=No   GUID=303f1258-426f-44be-b402-b0ecfbda1082
   Frame=217   JointI=1533   JointJ=270   IsCurved=No   GUID=f60c947d-7db5-4e02-89c3-d27b9aa7c4ae
   Frame=218   JointI=1534   JointJ=280   IsCurved=No   GUID=ebcbef72-6eab-4a1d-9f37-d3cc395e6025
   Frame=219   JointI=1535   JointJ=284   IsCurved=No   GUID=8069dc69-2d1d-45ac-b231-03f9ef66f7ee
   Frame=220   JointI=1536   JointJ=282   IsCurved=No   GUID=7a7d87cd-d92c-4b75-9373-7ac044eeac82
   Frame=221   JointI=1537   JointJ=278   IsCurved=No   GUID=fa66f603-1c58-449e-a178-efd79e53c1fa
 
TABLE:  "COORDINATE SYSTEMS"
   Name=GLOBAL   Type=Cartesian   X=0   Y=0   Z=0   AboutZ=0   AboutY=0   AboutX=0
 
TABLE:  "DATABASE DOCUMENTATION"
 
TABLE:  "DATABASE FORMAT TYPES"
   UnitsCurr=Yes   OverrideE=No
 
TABLE:  "FRAME AUTO MESH ASSIGNMENTS"
   Frame=74   AutoMesh=Yes   AtJoints=Yes   AtFrames=No   NumSegments=0   MaxLength=0   MaxDegrees=0
   Frame=75   AutoMesh=Yes   AtJoints=Yes   AtFrames=No   NumSegments=0   MaxLength=0   MaxDegrees=0
   Frame=76   AutoMesh=Yes   AtJoints=Yes   AtFrames=No   NumSegments=0   MaxLength=0   MaxDegrees=0
   Frame=77   AutoMesh=Yes   AtJoints=Yes   AtFrames=No   NumSegments=0   MaxLength=0   MaxDegrees=0
   Frame=82   AutoMesh=Yes   AtJoints=Yes   AtFrames=No   NumSegments=0   MaxLength=0   MaxDegrees=0
   Frame=83   AutoMesh=Yes   AtJoints=Yes   AtFrames=No   NumSegments=0   MaxLength=0   MaxDegrees=0
   Frame=84   AutoMesh=Yes   AtJoints=Yes   AtFrames=No   NumSegments=0   MaxLength=0   MaxDegrees=0
   Frame=85   AutoMesh=Yes   AtJoints=Yes   AtFrames=No   NumSegments=0   MaxLength=0   MaxDegrees=0
   Frame=86   AutoMesh=Yes   AtJoints=Yes   AtFrames=No   NumSegments=0   MaxLength=0   MaxDegrees=0
   Frame=87   AutoMesh=Yes   AtJoints=Yes   AtFrames=No   NumSegments=0   MaxLength=0   MaxDegrees=0
   Frame=88   AutoMesh=Yes   AtJoints=Yes   AtFrames=No   NumSegments=0   MaxLength=0   MaxDegrees=0
   Frame=89   AutoMesh=Yes   AtJoints=Yes   AtFrames=No   NumSegments=0   MaxLength=0   MaxDegrees=0
   Frame=90   AutoMesh=Yes   AtJoints=Yes   AtFrames=No   NumSegments=0   MaxLength=0   MaxDegrees=0
   Frame=91   AutoMesh=Yes   AtJoints=Yes   AtFrames=No   NumSegments=0   MaxLength=0   MaxDegrees=0
   Frame=92   AutoMesh=Yes   AtJoints=Yes   AtFrames=No   NumSegments=0   MaxLength=0   MaxDegrees=0
   Frame=93   AutoMesh=Yes   AtJoints=Yes   AtFrames=No   NumSegments=0   MaxLength=0   MaxDegrees=0
   Frame=94   AutoMesh=Yes   AtJoints=Yes   AtFrames=No   NumSegments=0   MaxLength=0   MaxDegrees=0
   Frame=95   AutoMesh=Yes   AtJoints=Yes   AtFrames=No   NumSegments=0   MaxLength=0   MaxDegrees=0
   Frame=96   AutoMesh=Yes   AtJoints=Yes   AtFrames=No   NumSegments=0   MaxLength=0   MaxDegrees=0
   Frame=97   AutoMesh=Yes   AtJoints=Yes   AtFrames=No   NumSegments=0   MaxLength=0   MaxDegrees=0
# ... 122 like lines cut
 
TABLE:  "FRAME DESIGN PROCEDURES"
   Frame=74   DesignProc="No Design"
   Frame=75   DesignProc="No Design"
   Frame=76   DesignProc="No Design"
   Frame=77   DesignProc="No Design"
   Frame=82   DesignProc="No Design"
   Frame=83   DesignProc="No Design"
   Frame=84   DesignProc="No Design"
   Frame=85   DesignProc="No Design"
   Frame=86   DesignProc="No Design"
   Frame=87   DesignProc="No Design"
   Frame=88   DesignProc="No Design"
   Frame=89   DesignProc="No Design"
   Frame=90   DesignProc="No Design"
   Frame=91   DesignProc="No Design"
   Frame=92   DesignProc="No Design"
   Frame=93   DesignProc="No Design"
   Frame=94   DesignProc="No Design"
   Frame=95   DesignProc="No Design"
   Frame=96   DesignProc="No Design"
   Frame=97   DesignProc="No Design"
# ... 122 like lines cut
 
TABLE:  "FRAME LOAD TRANSFER OPTIONS"
   Frame=74   Transfer=Yes
   Frame=75   Transfer=Yes
   Frame=76   Transfer=Yes
   Frame=77   Transfer=Yes
   Frame=82   Transfer=Yes
   Frame=83   Transfer=Yes
   Frame=84   Transfer=Yes
   Frame=85   Transfer=Yes
   Frame=86   Transfer=Yes
   Frame=87   Transfer=Yes
   Frame=88   Transfer=Yes
   Frame=89   Transfer=Yes
   Frame=90   Transfer=Yes
   Frame=91   Transfer=Yes
   Frame=92   Transfer=Yes
   Frame=93   Transfer=Yes
   Frame=94   Transfer=Yes
   Frame=95   Transfer=Yes
   Frame=96   Transfer=Yes
   Frame=97   Transfer=Yes
# ... 122 like lines cut
 
TABLE:  "FRAME OUTPUT STATION ASSIGNMENTS"
   Frame=74   StationType=MinNumSta   MinNumSta=3   AddAtElmInt=Yes   AddAtPtLoad=Yes
   Frame=75   StationType=MinNumSta   MinNumSta=3   AddAtElmInt=Yes   AddAtPtLoad=Yes
   Frame=76   StationType=MinNumSta   MinNumSta=3   AddAtElmInt=Yes   AddAtPtLoad=Yes
   Frame=77   StationType=MinNumSta   MinNumSta=3   AddAtElmInt=Yes   AddAtPtLoad=Yes
   Frame=82   StationType=MinNumSta   MinNumSta=3   AddAtElmInt=Yes   AddAtPtLoad=Yes
   Frame=83   StationType=MinNumSta   MinNumSta=3   AddAtElmInt=Yes   AddAtPtLoad=Yes
   Frame=84   StationType=MinNumSta   MinNumSta=3   AddAtElmInt=Yes   AddAtPtLoad=Yes
   Frame=85   StationType=MinNumSta   MinNumSta=3   AddAtElmInt=Yes   AddAtPtLoad=Yes
   Frame=86   StationType=MinNumSta   MinNumSta=3   AddAtElmInt=Yes   AddAtPtLoad=Yes
   Frame=87   StationType=MinNumSta   MinNumSta=3   AddAtElmInt=Yes   AddAtPtLoad=Yes
   Frame=88   StationType=MinNumSta   MinNumSta=3   AddAtElmInt=Yes   AddAtPtLoad=Yes
   Frame=89   StationType=MinNumSta   MinNumSta=3   AddAtElmInt=Yes   AddAtPtLoad=Yes
   Frame=90   StationType=MinNumSta   MinNumSta=3   AddAtElmInt=Yes   AddAtPtLoad=Yes
   Frame=91   StationType=MinNumSta   MinNumSta=3   AddAtElmInt=Yes   AddAtPtLoad=Yes
   Frame=92   StationType=MinNumSta   MinNumSta=3   AddAtElmInt=Yes   AddAtPtLoad=Yes
   Frame=93   StationType=MinNumSta   MinNumSta=3   AddAtElmInt=Yes   AddAtPtLoad=Yes
   Frame=94   StationType=MinNumSta   MinNumSta=3   AddAtElmInt=Yes   AddAtPtLoad=Yes
   Frame=95   StationType=MinNumSta   MinNumSta=3   AddAtElmInt=Yes   AddAtPtLoad=Yes
   Frame=96   StationType=MinNumSta   MinNumSta=3   AddAtElmInt=Yes   AddAtPtLoad=Yes
   Frame=97   StationType=MinNumSta   MinNumSta=3   AddAtElmInt=Yes   AddAtPtLoad=Yes
# ... 122 like lines cut
 
TABLE:  "FRAME SECTION ASSIGNMENTS"
   Frame=74   AutoSelect=N.A.   AnalSect=C500   MatProp=Default
   Frame=75   AutoSelect=N.A.   AnalSect=C400   MatProp=Default
   Frame=76   AutoSelect=N.A.   AnalSect=C400   MatProp=Default
   Frame=77   AutoSelect=N.A.   AnalSect=C400   MatProp=Default
   Frame=82   AutoSelect=N.A.   AnalSect=C500   MatProp=Default
   Frame=83   AutoSelect=N.A.   AnalSect=C400   MatProp=Default
   Frame=84   AutoSelect=N.A.   AnalSect=C400   MatProp=Default
   Frame=85   AutoSelect=N.A.   AnalSect=C400   MatProp=Default
   Frame=86   AutoSelect=N.A.   AnalSect=C500   MatProp=Default
   Frame=87   AutoSelect=N.A.   AnalSect=C400   MatProp=Default
   Frame=88   AutoSelect=N.A.   AnalSect=C400   MatProp=Default
   Frame=89   AutoSelect=N.A.   AnalSect=C400   MatProp=Default
   Frame=90   AutoSelect=N.A.   AnalSect=C500   MatProp=Default
   Frame=91   AutoSelect=N.A.   AnalSect=C400   MatProp=Default
   Frame=92   AutoSelect=N.A.   AnalSect=C400   MatProp=Default
   Frame=93   AutoSelect=N.A.   AnalSect=C400   MatProp=Default
   Frame=94   AutoSelect=N.A.   AnalSect=C500   MatProp=Default
   Frame=95   AutoSelect=N.A.   AnalSect=C400   MatProp=Default
   Frame=96   AutoSelect=N.A.   AnalSect=C400   MatProp=Default
   Frame=97   AutoSelect=N.A.   AnalSect=C400   MatProp=Default
# ... 122 like lines cut
 
TABLE:  "FRAME SECTION PROPERTIES 01 - GENERAL"
   SectionName=C400   Material=BTM600   Shape=Pipe   t3=0.4   tw=0.075   Area=0.0765763209312512   TorsConst=0.00212977892590043   I33=0.00106488946295021   I22=0.00106488946295021   I23=0   AS2=0.0396237939702405   AS3=0.0396237939702405 _
        S33Top=0.00532444731475106   S33Bot=0.00532444731475106   S22Left=0.00532444731475106   S22Right=0.00532444731475106   Z33=0.0080625   Z22=0.0080625   R33=0.117924764150708   R22=0.117924764150708   CGOffset3=0   CGOffset2=0 _
        EccV2=0   EccV3=0   Cw=0   Color=Yellow   FromFile=No   AMod=1   A2Mod=1   A3Mod=1   JMod=1   I2Mod=1   I3Mod=1   MMod=1   WMod=1   Notes="Added 3/20/2016 10:08:51 PM"
   SectionName=C500   Material=BTM600   Shape=Pipe   t3=0.5   tw=0.09   Area=0.115924768917463   TorsConst=0.00510648607081426   I33=0.00255324303540713   I22=0.00255324303540713   I23=0   AS2=0.0597949188619937   AS3=0.0597949188619937 _
        S33Top=0.0102129721416285   S33Bot=0.0102129721416285   S22Left=0.0102129721416285   S22Right=0.0102129721416285   Z33=0.015372   Z22=0.015372   R33=0.148408220796558   R22=0.148408220796558   CGOffset3=0   CGOffset2=0   EccV2=0 _
        EccV3=0   Cw=0   Color=4259584   FromFile=No   AMod=1   A2Mod=1   A3Mod=1   JMod=1   I2Mod=1   I3Mod=1   MMod=1   WMod=1   Notes="Added 3/20/2016 10:08:21 PM"
 
TABLE:  "FRAME SECTION PROPERTIES 13 - TIME DEPENDENT"
   SectionName=C400   TypeSize=User   AutoSFSize=1   UserValSize=0.1
   SectionName=C500   TypeSize=User   AutoSFSize=1   UserValSize=0.1
 
TABLE:  "FUNCTION - PLOT FUNCTIONS"
   PlotFunc="Input Energy"   Type=Energy   Component=Input   Mode=All
 
TABLE:  "FUNCTION - POWER SPECTRAL DENSITY - USER"
   Name=UNIFPSD   Frequency=0   Value=1
   Name=UNIFPSD   Frequency=1   Value=1
 
TABLE:  "FUNCTION - RESPONSE SPECTRUM - USER"
   Name=UNIFRS   Period=0   Accel=1   FuncDamp=0.05
   Name=UNIFRS   Period=1   Accel=1
 
TABLE:  "FUNCTION - STEADY STATE - USER"
   Name=UNIFSS   Frequency=0   Value=1
   Name=UNIFSS   Frequency=1   Value=1
 
TABLE:  "FUNCTION - TIME HISTORY - USER"
   Name=RAMPTH   Time=0   Value=0
   Name=RAMPTH   Time=1   Value=1
   Name=RAMPTH   Time=4   Value=1
   Name=UNIFTH   Time=0   Value=1
   Name=UNIFTH   Time=1   Value=1
 
TABLE:  "GRID LINES"
   CoordSys=GLOBAL   AxisDir=X   GridID=A   XRYZCoord=0   LineType=Primary   LineColor=Gray8Dark   Visible=Yes   BubbleLoc=End   AllVisible=No   BubbleSize=0.375
   CoordSys=GLOBAL   AxisDir=X   GridID=B   XRYZCoord=0.5   LineType=Primary   LineColor=Gray8Dark   Visible=Yes   BubbleLoc=End
   CoordSys=GLOBAL   AxisDir=X   GridID=C   XRYZCoord=1.7   LineType=Primary   LineColor=Gray8Dark   Visible=Yes   BubbleLoc=End
   CoordSys=GLOBAL   AxisDir=X   GridID=D   XRYZCoord=3   LineType=Primary   LineColor=Gray8Dark   Visible=Yes   BubbleLoc=End
   CoordSys=GLOBAL   AxisDir=X   GridID=E   XRYZCoord=4   LineType=Primary   LineColor=Gray8Dark   Visible=Yes   BubbleLoc=End
   CoordSys=GLOBAL   AxisDir=X   GridID=F   XRYZCoord=5.5   LineType=Primary   LineColor=Gray8Dark   Visible=Yes   BubbleLoc=End
   CoordSys=GLOBAL   AxisDir=X   GridID=G   XRYZCoord=7   LineType=Primary   LineColor=Gray8Dark   Visible=Yes   BubbleLoc=End
   CoordSys=GLOBAL   AxisDir=X   GridID=H   XRYZCoord=8.5   LineType=Primary   LineColor=Gray8Dark   Visible=Yes   BubbleLoc=End
   CoordSys=GLOBAL   AxisDir=X   GridID=I   XRYZCoord=9.4   LineType=Primary   LineColor=Gray8Dark   Visible=Yes   BubbleLoc=End
   CoordSys=GLOBAL   AxisDir=X   GridID=J   XRYZCoord=10   LineType=Primary   LineColor=Gray8Dark   Visible=Yes   BubbleLoc=End
   CoordSys=GLOBAL   AxisDir=X   GridID=K   XRYZCoord=10.5   LineType=Primary   LineColor=Gray8Dark   Visible=Yes   BubbleLoc=End
   CoordSys=GLOBAL   AxisDir=Y   GridID=1   XRYZCoord=0   LineType=Primary   LineColor=Gray8Dark   Visible=Yes   BubbleLoc=Start
   CoordSys=GLOBAL   AxisDir=Y   GridID=2   XRYZCoord=0.49   LineType=Primary   LineColor=Gray8Dark   Visible=Yes   BubbleLoc=Start
   CoordSys=GLOBAL   AxisDir=Y   GridID=3   XRYZCoord=1.14   LineType=Primary   LineColor=Gray8Dark   Visible=Yes   BubbleLoc=Start
   CoordSys=GLOBAL   AxisDir=Y   GridID=4   XRYZCoord=1.79   LineType=Primary   LineColor=Gray8Dark   Visible=Yes   BubbleLoc=Start
   CoordSys=GLOBAL   AxisDir=Y   GridID=5   XRYZCoord=2.44   LineType=Primary   LineColor=Gray8Dark   Visible=Yes   BubbleLoc=Start
   CoordSys=GLOBAL   AxisDir=Y   GridID=6   XRYZCoord=3.09   LineType=Primary   LineColor=Gray8Dark   Visible=Yes   BubbleLoc=Start
   CoordSys=GLOBAL   AxisDir=Y   GridID=7   XRYZCoord=3.74   LineType=Primary   LineColor=Gray8Dark   Visible=Yes   BubbleLoc=Start
   CoordSys=GLOBAL   AxisDir=Y   GridID=8   XRYZCoord=4.39   LineType=Primary   LineColor=Gray8Dark   Visible=Yes   BubbleLoc=Start
   CoordSys=GLOBAL   AxisDir=Y   GridID=9   XRYZCoord=5.04   LineType=Primary   LineColor=Gray8Dark   Visible=Yes   BubbleLoc=Start
   CoordSys=GLOBAL   AxisDir=Y   GridID=10   XRYZCoord=5.69   LineType=Primary   LineColor=Gray8Dark   Visible=Yes   BubbleLoc=Start
   CoordSys=GLOBAL   AxisDir=Y   GridID=11   XRYZCoord=6.34   LineType=Primary   LineColor=Gray8Dark   Visible=Yes   BubbleLoc=Start
   CoordSys=GLOBAL   AxisDir=Y   GridID=12   XRYZCoord=6.99   LineType=Primary   LineColor=Gray8Dark   Visible=Yes   BubbleLoc=Start
   CoordSys=GLOBAL   AxisDir=Y   GridID=13   XRYZCoord=7.64   LineType=Primary   LineColor=Gray8Dark   Visible=Yes   BubbleLoc=Start
   CoordSys=GLOBAL   AxisDir=Y   GridID=14   XRYZCoord=8.29   LineType=Primary   LineColor=Gray8Dark   Visible=Yes   BubbleLoc=Start
   CoordSys=GLOBAL   AxisDir=Y   GridID=15   XRYZCoord=8.94   LineType=Primary   LineColor=Gray8Dark   Visible=Yes   BubbleLoc=Start
   CoordSys=GLOBAL   AxisDir=Y   GridID=16   XRYZCoord=9.59   LineType=Primary   LineColor=Gray8Dark   Visible=Yes   BubbleLoc=Start
   CoordSys=GLOBAL   AxisDir=Y   GridID=17   XRYZCoord=10.24   LineType=Primary   LineColor=Gray8Dark   Visible=Yes   BubbleLoc=Start
   CoordSys=GLOBAL   AxisDir=Y   GridID=18   XRYZCoord=10.89   LineType=Primary   LineColor=Gray8Dark   Visible=Yes   BubbleLoc=Start
   CoordSys=GLOBAL   AxisDir=Y   GridID=19   XRYZCoord=11.54   LineType=Primary   LineColor=Gray8Dark   Visible=Yes   BubbleLoc=Start
   CoordSys=GLOBAL   AxisDir=Y   GridID=20   XRYZCoord=12.19   LineType=Primary   LineColor=Gray8Dark   Visible=Yes   BubbleLoc=Start
# ... 29 like lines cut
   CoordSys=GLOBAL   AxisDir=Z   GridID=Z1   XRYZCoord=0   LineType=Primary   LineColor=Gray8Dark   Visible=Yes   BubbleLoc=End
   CoordSys=GLOBAL   AxisDir=Z   GridID=Z2   XRYZCoord=5.1   LineType=Primary   LineColor=Gray8Dark   Visible=Yes   BubbleLoc=End
   CoordSys=GLOBAL   AxisDir=Z   GridID=Z3   XRYZCoord=5.5   LineType=Primary   LineColor=Gray8Dark   Visible=Yes   BubbleLoc=End
   CoordSys=GLOBAL   AxisDir=Z   GridID=Z4   XRYZCoord=8.1   LineType=Primary   LineColor=Gray8Dark   Visible=Yes   BubbleLoc=End
   CoordSys=GLOBAL   AxisDir=Z   GridID=Z5   XRYZCoord=9   LineType=Primary   LineColor=Gray8Dark   Visible=Yes   BubbleLoc=End
   CoordSys=GLOBAL   AxisDir=Z   GridID=Z6   XRYZCoord=9.3   LineType=Primary   LineColor=Gray8Dark   Visible=Yes   BubbleLoc=End
 
TABLE:  "GROUPS 1 - DEFINITIONS"
   GroupName=All   Selection=Yes   SectionCut=Yes   Steel=Yes   Concrete=Yes   Aluminum=Yes   ColdFormed=Yes   Stage=Yes   Bridge=Yes   AutoSeismic=No   AutoWind=No   SelDesSteel=No   SelDesAlum=No   SelDesCold=No   MassWeight=Yes   Color=Red
   GroupName=TUONGC30   Selection=Yes   SectionCut=Yes   Steel=Yes   Concrete=Yes   Aluminum=Yes   ColdFormed=Yes   Stage=Yes   Bridge=Yes   AutoSeismic=No   AutoWind=No   SelDesSteel=No   SelDesAlum=No   SelDesCold=No   MassWeight=Yes   Color=Magenta
   GroupName=TUONGM30   Selection=Yes   SectionCut=Yes   Steel=Yes   Concrete=Yes   Aluminum=Yes   ColdFormed=Yes   Stage=Yes   Bridge=Yes   AutoSeismic=No   AutoWind=No   SelDesSteel=No   SelDesAlum=No   SelDesCold=No   MassWeight=Yes   Color=Yellow
   GroupName=TUONGM43   Selection=Yes   SectionCut=Yes   Steel=Yes   Concrete=Yes   Aluminum=Yes   ColdFormed=Yes   Stage=Yes   Bridge=Yes   AutoSeismic=No   AutoWind=No   SelDesSteel=No   SelDesAlum=No   SelDesCold=No   MassWeight=Yes   Color=White
   GroupName=TUONGM78   Selection=Yes   SectionCut=Yes   Steel=Yes   Concrete=Yes   Aluminum=Yes   ColdFormed=Yes   Stage=Yes   Bridge=Yes   AutoSeismic=No   AutoWind=No   SelDesSteel=No   SelDesAlum=No   SelDesCold=No   MassWeight=Yes   Color=Gray8Dark
   GroupName=DAY130   Selection=Yes   SectionCut=Yes   Steel=Yes   Concrete=Yes   Aluminum=Yes   ColdFormed=Yes   Stage=Yes   Bridge=Yes   AutoSeismic=No   AutoWind=No   SelDesSteel=No   SelDesAlum=No   SelDesCold=No   MassWeight=Yes   Color=Blue
   GroupName=DAY60   Selection=Yes   SectionCut=Yes   Steel=Yes   Concrete=Yes   Aluminum=Yes   ColdFormed=Yes   Stage=Yes   Bridge=Yes   AutoSeismic=No   AutoWind=No   SelDesSteel=No   SelDesAlum=No   SelDesCold=No   MassWeight=Yes   Color=Green
   GroupName=Piles   Selection=Yes   SectionCut=Yes   Steel=Yes   Concrete=Yes   Aluminum=Yes   ColdFormed=Yes   Stage=Yes   Bridge=Yes   AutoSeismic=No   AutoWind=No   SelDesSteel=No   SelDesAlum=No   SelDesCold=No   MassWeight=Yes   Color=Cyan
   GroupName=WallTop   Selection=Yes   SectionCut=Yes   Steel=Yes   Concrete=Yes   Aluminum=Yes   ColdFormed=Yes   Stage=Yes   Bridge=Yes   AutoSeismic=No   AutoWind=No   SelDesSteel=No   SelDesAlum=No   SelDesCold=No   MassWeight=Yes   Color=Red
 
TABLE:  "GROUPS 2 - ASSIGNMENTS"
   GroupName=TUONGC30   ObjectType=Area   ObjectLabel=711
   GroupName=TUONGC30   ObjectType=Area   ObjectLabel=712
   GroupName=TUONGC30   ObjectType=Area   ObjectLabel=713
   GroupName=TUONGC30   ObjectType=Area   ObjectLabel=714
   GroupName=TUONGC30   ObjectType=Area   ObjectLabel=715
   GroupName=TUONGC30   ObjectType=Area   ObjectLabel=716
   GroupName=TUONGC30   ObjectType=Area   ObjectLabel=717
   GroupName=TUONGC30   ObjectType=Area   ObjectLabel=718
   GroupName=TUONGC30   ObjectType=Area   ObjectLabel=719
   GroupName=TUONGC30   ObjectType=Area   ObjectLabel=720
   GroupName=TUONGC30   ObjectType=Area   ObjectLabel=721
   GroupName=TUONGC30   ObjectType=Area   ObjectLabel=722
   GroupName=TUONGC30   ObjectType=Area   ObjectLabel=723
   GroupName=TUONGC30   ObjectType=Area   ObjectLabel=724
   GroupName=TUONGC30   ObjectType=Area   ObjectLabel=725
   GroupName=TUONGC30   ObjectType=Area   ObjectLabel=726
   GroupName=TUONGC30   ObjectType=Area   ObjectLabel=727
   GroupName=TUONGC30   ObjectType=Area   ObjectLabel=728
   GroupName=TUONGC30   ObjectType=Area   ObjectLabel=729
   GroupName=TUONGC30   ObjectType=Area   ObjectLabel=730
# ... 124 like lines cut
   GroupName=TUONGM30   ObjectType=Area   ObjectLabel=1
   GroupName=TUONGM30   ObjectType=Area   ObjectLabel=2
   GroupName=TUONGM30   ObjectType=Area   ObjectLabel=3
   GroupName=TUONGM30   ObjectType=Area   ObjectLabel=4
   GroupName=TUONGM30   ObjectType=Area   ObjectLabel=5
   GroupName=TUONGM30   ObjectType=Area   ObjectLabel=6
   GroupName=TUONGM30   ObjectType=Area   ObjectLabel=7
   GroupName=TUONGM30   ObjectType=Area   ObjectLabel=8
   GroupName=TUONGM30   ObjectType=Area   ObjectLabel=9
   GroupName=TUONGM30   ObjectType=Area   ObjectLabel=10
   GroupName=TUONGM30   ObjectType=Area   ObjectLabel=11
   GroupName=TUONGM30   ObjectType=Area   ObjectLabel=12
   GroupName=TUONGM30   ObjectType=Area   ObjectLabel=493
   GroupName=TUONGM30   ObjectType=Area   ObjectLabel=494
   GroupName=TUONGM30   ObjectType=Area   ObjectLabel=495
   GroupName=TUONGM30   ObjectType=Area   ObjectLabel=496
   GroupName=TUONGM30   ObjectType=Area   ObjectLabel=497
   GroupName=TUONGM30   ObjectType=Area   ObjectLabel=498
   GroupName=TUONGM30   ObjectType=Area   ObjectLabel=499
   GroupName=TUONGM30   ObjectType=Area   ObjectLabel=500
# ... 316 like lines cut
   GroupName=DAY130   ObjectType=Area   ObjectLabel=397
   GroupName=DAY130   ObjectType=Area   ObjectLabel=398
   GroupName=DAY130   ObjectType=Area   ObjectLabel=399
   GroupName=DAY130   ObjectType=Area   ObjectLabel=400
   GroupName=DAY130   ObjectType=Area   ObjectLabel=401
   GroupName=DAY130   ObjectType=Area   ObjectLabel=402
   GroupName=DAY130   ObjectType=Area   ObjectLabel=403
   GroupName=DAY130   ObjectType=Area   ObjectLabel=404
   GroupName=DAY130   ObjectType=Area   ObjectLabel=405
   GroupName=DAY130   ObjectType=Area   ObjectLabel=406
   GroupName=DAY130   ObjectType=Area   ObjectLabel=407
   GroupName=DAY130   ObjectType=Area   ObjectLabel=408
   GroupName=DAY130   ObjectType=Area   ObjectLabel=409
   GroupName=DAY130   ObjectType=Area   ObjectLabel=410
   GroupName=DAY130   ObjectType=Area   ObjectLabel=411
   GroupName=DAY130   ObjectType=Area   ObjectLabel=412
   GroupName=DAY130   ObjectType=Area   ObjectLabel=413
   GroupName=DAY130   ObjectType=Area   ObjectLabel=414
   GroupName=DAY130   ObjectType=Area   ObjectLabel=415
   GroupName=DAY130   ObjectType=Area   ObjectLabel=416
# ... 700 like lines cut
   GroupName=Piles   ObjectType=Joint   ObjectLabel=155
   GroupName=Piles   ObjectType=Joint   ObjectLabel=157
   GroupName=Piles   ObjectType=Joint   ObjectLabel=159
   GroupName=Piles   ObjectType=Joint   ObjectLabel=161
   GroupName=Piles   ObjectType=Joint   ObjectLabel=171
   GroupName=Piles   ObjectType=Joint   ObjectLabel=173
   GroupName=Piles   ObjectType=Joint   ObjectLabel=175
   GroupName=Piles   ObjectType=Joint   ObjectLabel=177
   GroupName=Piles   ObjectType=Joint   ObjectLabel=179
   GroupName=Piles   ObjectType=Joint   ObjectLabel=181
   GroupName=Piles   ObjectType=Joint   ObjectLabel=183
   GroupName=Piles   ObjectType=Joint   ObjectLabel=185
   GroupName=Piles   ObjectType=Joint   ObjectLabel=187
   GroupName=Piles   ObjectType=Joint   ObjectLabel=189
   GroupName=Piles   ObjectType=Joint   ObjectLabel=191
   GroupName=Piles   ObjectType=Joint   ObjectLabel=193
   GroupName=Piles   ObjectType=Joint   ObjectLabel=195
   GroupName=Piles   ObjectType=Joint   ObjectLabel=197
   GroupName=Piles   ObjectType=Joint   ObjectLabel=199
   GroupName=Piles   ObjectType=Joint   ObjectLabel=201
# ... 122 like lines cut
   GroupName=Piles   ObjectType=Frame   ObjectLabel=74
   GroupName=Piles   ObjectType=Frame   ObjectLabel=75
   GroupName=Piles   ObjectType=Frame   ObjectLabel=76
   GroupName=Piles   ObjectType=Frame   ObjectLabel=77
   GroupName=Piles   ObjectType=Frame   ObjectLabel=82
   GroupName=Piles   ObjectType=Frame   ObjectLabel=83
   GroupName=Piles   ObjectType=Frame   ObjectLabel=84
   GroupName=Piles   ObjectType=Frame   ObjectLabel=85
   GroupName=Piles   ObjectType=Frame   ObjectLabel=86
   GroupName=Piles   ObjectType=Frame   ObjectLabel=87
   GroupName=Piles   ObjectType=Frame   ObjectLabel=88
   GroupName=Piles   ObjectType=Frame   ObjectLabel=89
   GroupName=Piles   ObjectType=Frame   ObjectLabel=90
   GroupName=Piles   ObjectType=Frame   ObjectLabel=91
   GroupName=Piles   ObjectType=Frame   ObjectLabel=92
   GroupName=Piles   ObjectType=Frame   ObjectLabel=93
   GroupName=Piles   ObjectType=Frame   ObjectLabel=94
   GroupName=Piles   ObjectType=Frame   ObjectLabel=95
   GroupName=Piles   ObjectType=Frame   ObjectLabel=96
   GroupName=Piles   ObjectType=Frame   ObjectLabel=97
# ... 122 like lines cut
   GroupName=WallTop   ObjectType=Joint   ObjectLabel=288
   GroupName=WallTop   ObjectType=Joint   ObjectLabel=293
   GroupName=WallTop   ObjectType=Joint   ObjectLabel=866
   GroupName=WallTop   ObjectType=Joint   ObjectLabel=868
   GroupName=WallTop   ObjectType=Joint   ObjectLabel=870
   GroupName=WallTop   ObjectType=Joint   ObjectLabel=871
   GroupName=WallTop   ObjectType=Joint   ObjectLabel=873
   GroupName=WallTop   ObjectType=Joint   ObjectLabel=875
   GroupName=WallTop   ObjectType=Joint   ObjectLabel=877
   GroupName=WallTop   ObjectType=Joint   ObjectLabel=879
   GroupName=WallTop   ObjectType=Joint   ObjectLabel=881
   GroupName=WallTop   ObjectType=Joint   ObjectLabel=882
   GroupName=WallTop   ObjectType=Joint   ObjectLabel=884
   GroupName=WallTop   ObjectType=Joint   ObjectLabel=886
   GroupName=WallTop   ObjectType=Joint   ObjectLabel=888
   GroupName=WallTop   ObjectType=Joint   ObjectLabel=890
   GroupName=WallTop   ObjectType=Joint   ObjectLabel=892
   GroupName=WallTop   ObjectType=Joint   ObjectLabel=893
   GroupName=WallTop   ObjectType=Joint   ObjectLabel=895
   GroupName=WallTop   ObjectType=Joint   ObjectLabel=897
# ... 29 like lines cut
 
TABLE:  "JOINT COORDINATES"
   Joint=2   CoordSys=GLOBAL   CoordType=Cartesian   XorR=0.5   Y=0.49   Z=5.1   SpecialJt=No
   Joint=4   CoordSys=GLOBAL   CoordType=Cartesian   XorR=4   Y=0.49   Z=5.1   SpecialJt=No
   Joint=6   CoordSys=GLOBAL   CoordType=Cartesian   XorR=7   Y=0.49   Z=5.1   SpecialJt=No
   Joint=8   CoordSys=GLOBAL   CoordType=Cartesian   XorR=10   Y=0.49   Z=5.1   SpecialJt=No
   Joint=10   CoordSys=GLOBAL   CoordType=Cartesian   XorR=0.5   Y=3.09   Z=5.1   SpecialJt=No
   Joint=12   CoordSys=GLOBAL   CoordType=Cartesian   XorR=4   Y=3.09   Z=5.1   SpecialJt=No
   Joint=14   CoordSys=GLOBAL   CoordType=Cartesian   XorR=7   Y=3.09   Z=5.1   SpecialJt=No
   Joint=16   CoordSys=GLOBAL   CoordType=Cartesian   XorR=10   Y=3.09   Z=5.1   SpecialJt=No
   Joint=18   CoordSys=GLOBAL   CoordType=Cartesian   XorR=0.5   Y=4.39   Z=5.1   SpecialJt=No
   Joint=20   CoordSys=GLOBAL   CoordType=Cartesian   XorR=4   Y=4.39   Z=5.1   SpecialJt=No
   Joint=22   CoordSys=GLOBAL   CoordType=Cartesian   XorR=7   Y=4.39   Z=5.1   SpecialJt=No
   Joint=24   CoordSys=GLOBAL   CoordType=Cartesian   XorR=10   Y=4.39   Z=5.1   SpecialJt=No
   Joint=26   CoordSys=GLOBAL   CoordType=Cartesian   XorR=0.5   Y=6.99   Z=5.1   SpecialJt=No
   Joint=28   CoordSys=GLOBAL   CoordType=Cartesian   XorR=4   Y=6.99   Z=5.1   SpecialJt=No
   Joint=30   CoordSys=GLOBAL   CoordType=Cartesian   XorR=7   Y=6.99   Z=5.1   SpecialJt=No
   Joint=32   CoordSys=GLOBAL   CoordType=Cartesian   XorR=10   Y=6.99   Z=5.1   SpecialJt=No
   Joint=34   CoordSys=GLOBAL   CoordType=Cartesian   XorR=0.5   Y=8.29   Z=5.1   SpecialJt=No
   Joint=36   CoordSys=GLOBAL   CoordType=Cartesian   XorR=4   Y=8.29   Z=5.1   SpecialJt=No
   Joint=38   CoordSys=GLOBAL   CoordType=Cartesian   XorR=7   Y=8.29   Z=5.1   SpecialJt=No
   Joint=40   CoordSys=GLOBAL   CoordType=Cartesian   XorR=10   Y=8.29   Z=5.1   SpecialJt=No
# ... 1434 like lines cut
 
TABLE:  "JOINT LOADS - FORCE"
   Joint=658   LoadPat=Pdat   CoordSys=GLOBAL   F1=-2.867   F2=0   F3=0   M1=0   M2=0   M3=0   GUID=386dbe57-dc3d-4ca4-943b-9159f0419d50
   Joint=659   LoadPat=Pdat   CoordSys=GLOBAL   F1=-2.867   F2=0   F3=0   M1=0   M2=0   M3=0   GUID=444f511c-447b-443f-83dc-4285032fcdd1
   Joint=660   LoadPat=Pdat   CoordSys=GLOBAL   F1=-2.867   F2=0   F3=0   M1=0   M2=0   M3=0   GUID=65999624-11cf-4982-bbaa-534357232632
   Joint=661   LoadPat=Pdat   CoordSys=GLOBAL   F1=-2.867   F2=0   F3=0   M1=0   M2=0   M3=0   GUID=2a3d8e8f-f02d-4c03-8a88-dbe297b79ef7
   Joint=662   LoadPat=Pdat   CoordSys=GLOBAL   F1=-2.867   F2=0   F3=0   M1=0   M2=0   M3=0   GUID=2aea6e9c-89e8-44c2-b7c7-e057c97914c0
   Joint=663   LoadPat=Pdat   CoordSys=GLOBAL   F1=-2.867   F2=0   F3=0   M1=0   M2=0   M3=0   GUID=4561fc47-5a8c-4f49-a5e0-ec916b3e06d6
   Joint=664   LoadPat=Pdat   CoordSys=GLOBAL   F1=-2.867   F2=0   F3=0   M1=0   M2=0   M3=0   GUID=877ac62f-4c46-42c6-ba40-d82013f1e3c2
   Joint=665   LoadPat=Pdat   CoordSys=GLOBAL   F1=-2.867   F2=0   F3=0   M1=0   M2=0   M3=0   GUID=13e6c5de-9628-4340-a98e-137d54bb4d43
   Joint=666   LoadPat=Pdat   CoordSys=GLOBAL   F1=-2.867   F2=0   F3=0   M1=0   M2=0   M3=0   GUID=d49bd25a-3213-406d-a72e-f1eb4be91c60
   Joint=667   LoadPat=Pdat   CoordSys=GLOBAL   F1=-2.867   F2=0   F3=0   M1=0   M2=0   M3=0   GUID=880e6ba7-14bd-4350-9fc9-efae47b5be45
   Joint=668   LoadPat=Pdat   CoordSys=GLOBAL   F1=-2.867   F2=0   F3=0   M1=0   M2=0   M3=0   GUID=109b795a-61c9-4ea6-b137-501ea5eacc32
   Joint=669   LoadPat=Pdat   CoordSys=GLOBAL   F1=-2.867   F2=0   F3=0   M1=0   M2=0   M3=0   GUID=eb7cd6dd-6fb8-42df-8f5c-b3069ddc6000
   Joint=670   LoadPat=Pdat   CoordSys=GLOBAL   F1=-2.867   F2=0   F3=0   M1=0   M2=0   M3=0   GUID=ed902778-4e2c-4a7b-88f8-e0c02fe92665
   Joint=671   LoadPat=Pdat   CoordSys=GLOBAL   F1=-2.867   F2=0   F3=0   M1=0   M2=0   M3=0   GUID=8162dc99-8a4e-447b-b65d-0d278ee6cda2
   Joint=672   LoadPat=Pdat   CoordSys=GLOBAL   F1=-2.867   F2=0   F3=0   M1=0   M2=0   M3=0   GUID=9d6e8a04-a2cf-42be-9ae7-c925973a6083
   Joint=673   LoadPat=Pdat   CoordSys=GLOBAL   F1=-2.867   F2=0   F3=0   M1=0   M2=0   M3=0   GUID=f6e225e1-b134-4f51-b2ad-039f9eff86f9
   Joint=674   LoadPat=Pdat   CoordSys=GLOBAL   F1=-2.867   F2=0   F3=0   M1=0   M2=0   M3=0   GUID=d26fc2af-e44d-4a95-b5ba-19ca89d06380
   Joint=675   LoadPat=Pdat   CoordSys=GLOBAL   F1=-2.867   F2=0   F3=0   M1=0   M2=0   M3=0   GUID=abd2aefe-a91a-4baa-a851-5ed62d40cff6
   Joint=676   LoadPat=Pdat   CoordSys=GLOBAL   F1=-2.867   F2=0   F3=0   M1=0   M2=0   M3=0   GUID=7246f70f-ad97-449b-b971-ab3f0341b9ef
   Joint=677   LoadPat=Pdat   CoordSys=GLOBAL   F1=-2.867   F2=0   F3=0   M1=0   M2=0   M3=0   GUID=59625472-46ce-43ec-8fcd-6db6a2e40be2
   Joint=678   LoadPat=Pdat   CoordSys=GLOBAL   F1=-2.867   F2=0   F3=0   M1=0   M2=0   M3=0   GUID=09c927b8-08fa-4966-bb55-17d43261f076
   Joint=679   LoadPat=Pdat   CoordSys=GLOBAL   F1=-2.867   F2=0   F3=0   M1=0   M2=0   M3=0   GUID=f5f70cd0-e5f5-4651-8dc9-25234fbb8e24
   Joint=680   LoadPat=Pdat   CoordSys=GLOBAL   F1=-2.867   F2=0   F3=0   M1=0   M2=0   M3=0   GUID=1a10ef15-b57c-4beb-ace5-da83c410774f
   Joint=681   LoadPat=Pdat   CoordSys=GLOBAL   F1=-2.867   F2=0   F3=0   M1=0   M2=0   M3=0   GUID=6294c52d-6eea-41b8-9483-08d04a004f3e
   Joint=682   LoadPat=Pdat   CoordSys=GLOBAL   F1=-2.867   F2=0   F3=0   M1=0   M2=0   M3=0   GUID=478261b8-ad55-4dfd-af21-0b1a2b08e2c5
   Joint=683   LoadPat=Pdat   CoordSys=GLOBAL   F1=-2.867   F2=0   F3=0   M1=0   M2=0   M3=0   GUID=6a24b3a0-18f7-4a4a-a565-f2e17e5e4f56
   Joint=684   LoadPat=Pdat   CoordSys=GLOBAL   F1=-2.867   F2=0   F3=0   M1=0   M2=0   M3=0   GUID=d4af4f4c-599a-4710-810b-473d2258fb87
   Joint=685   LoadPat=Pdat   CoordSys=GLOBAL   F1=-2.867   F2=0   F3=0   M1=0   M2=0   M3=0   GUID=48d463b1-888d-43ac-8666-01eab826b7d6
   Joint=686   LoadPat=Pdat   CoordSys=GLOBAL   F1=-2.867   F2=0   F3=0   M1=0   M2=0   M3=0   GUID=adf7d1d0-aace-4a37-b386-b37571d1445e
   Joint=687   LoadPat=Pdat   CoordSys=GLOBAL   F1=-2.867   F2=0   F3=0   M1=0   M2=0   M3=0   GUID=e328eb72-7f6b-4122-8ac3-4260cdf0f0e2
   Joint=688   LoadPat=Pdat   CoordSys=GLOBAL   F1=-2.867   F2=0   F3=0   M1=0   M2=0   M3=0   GUID=cd652908-d70c-451f-9473-3c46e8e866dd
   Joint=689   LoadPat=Pdat   CoordSys=GLOBAL   F1=-2.867   F2=0   F3=0   M1=0   M2=0   M3=0   GUID=3f104f87-2d8e-44d2-9176-e93b438d7618
   Joint=690   LoadPat=Pdat   CoordSys=GLOBAL   F1=-2.867   F2=0   F3=0   M1=0   M2=0   M3=0   GUID=6fd7ec2b-f60e-4ed3-8ad0-5a02cf154529
   Joint=691   LoadPat=Pdat   CoordSys=GLOBAL   F1=-2.867   F2=0   F3=0   M1=0   M2=0   M3=0   GUID=adfc8c31-7bbe-4e7d-8c88-fc2690c5456d
   Joint=692   LoadPat=Pdat   CoordSys=GLOBAL   F1=-2.867   F2=0   F3=0   M1=0   M2=0   M3=0   GUID=c2a188fd-2660-4f84-95d5-1cbacfdb0fa7
   Joint=693   LoadPat=Pdat   CoordSys=GLOBAL   F1=-2.867   F2=0   F3=0   M1=0   M2=0   M3=0   GUID=2b057bbd-3781-424a-9622-db40c0b9540e
   Joint=694   LoadPat=Pdat   CoordSys=GLOBAL   F1=-2.867   F2=0   F3=0   M1=0   M2=0   M3=0   GUID=54b17371-3225-4edf-9c11-85682862e8ee
   Joint=695   LoadPat=Pdat   CoordSys=GLOBAL   F1=-2.867   F2=0   F3=0   M1=0   M2=0   M3=0   GUID=33b2ca05-2925-49cc-be68-383a33537042
   Joint=696   LoadPat=Pdat   CoordSys=GLOBAL   F1=-2.867   F2=0   F3=0   M1=0   M2=0   M3=0   GUID=1020df8a-a4b7-4080-8628-e835fc2e5974
   Joint=697   LoadPat=Pdat   CoordSys=GLOBAL   F1=-2.867   F2=0   F3=0   M1=0   M2=0   M3=0   GUID=540b93a1-739a-446b-9c4b-566eae8c2ac0
   Joint=698   LoadPat=Pdat   CoordSys=GLOBAL   F1=-2.867   F2=0   F3=0   M1=0   M2=0   M3=0   GUID=6fe9ef69-eab9-40e5-b1fb-73880b252db5
   Joint=699   LoadPat=Pdat   CoordSys=GLOBAL   F1=-2.867   F2=0   F3=0   M1=0   M2=0   M3=0   GUID=ea418f80-50b6-414a-acbf-8b9f46bfce2d
   Joint=700   LoadPat=Pdat   CoordSys=GLOBAL   F1=-2.867   F2=0   F3=0   M1=0   M2=0   M3=0   GUID=90ab645c-0b27-4086-bc2f-a7252bde6e79
   Joint=701   LoadPat=Pdat   CoordSys=GLOBAL   F1=-2.867   F2=0   F3=0   M1=0   M2=0   M3=0   GUID=f15d5aac-bbaf-494f-aed2-2dfb65cc0bd0
   Joint=702   LoadPat=Pdat   CoordSys=GLOBAL   F1=-2.867   F2=0   F3=0   M1=0   M2=0   M3=0   GUID=49998028-2c10-4f2e-a4bb-a237b896e241
   Joint=703   LoadPat=Pdat   CoordSys=GLOBAL   F1=-2.867   F2=0   F3=0   M1=0   M2=0   M3=0   GUID=9a05cc2a-e4e5-43d6-ae9b-dc113f688d22
   Joint=704   LoadPat=Pdat   CoordSys=GLOBAL   F1=-2.867   F2=0   F3=0   M1=0   M2=0   M3=0   GUID=b1bf5d3d-50b5-4fc0-8c95-5c44641a273a
 
TABLE:  "JOINT PATTERN DEFINITIONS"
   Pattern=Default
 
TABLE:  "JOINT RESTRAINT ASSIGNMENTS"
   Joint=155   U1=Yes   U2=Yes   U3=Yes   R1=Yes   R2=Yes   R3=Yes
   Joint=157   U1=Yes   U2=Yes   U3=Yes   R1=Yes   R2=Yes   R3=Yes
   Joint=159   U1=Yes   U2=Yes   U3=Yes   R1=Yes   R2=Yes   R3=Yes
   Joint=161   U1=Yes   U2=Yes   U3=Yes   R1=Yes   R2=Yes   R3=Yes
   Joint=171   U1=Yes   U2=Yes   U3=Yes   R1=Yes   R2=Yes   R3=Yes
   Joint=173   U1=Yes   U2=Yes   U3=Yes   R1=Yes   R2=Yes   R3=Yes
   Joint=175   U1=Yes   U2=Yes   U3=Yes   R1=Yes   R2=Yes   R3=Yes
   Joint=177   U1=Yes   U2=Yes   U3=Yes   R1=Yes   R2=Yes   R3=Yes
   Joint=179   U1=Yes   U2=Yes   U3=Yes   R1=Yes   R2=Yes   R3=Yes
   Joint=181   U1=Yes   U2=Yes   U3=Yes   R1=Yes   R2=Yes   R3=Yes
   Joint=183   U1=Yes   U2=Yes   U3=Yes   R1=Yes   R2=Yes   R3=Yes
   Joint=185   U1=Yes   U2=Yes   U3=Yes   R1=Yes   R2=Yes   R3=Yes
   Joint=187   U1=Yes   U2=Yes   U3=Yes   R1=Yes   R2=Yes   R3=Yes
   Joint=189   U1=Yes   U2=Yes   U3=Yes   R1=Yes   R2=Yes   R3=Yes
   Joint=191   U1=Yes   U2=Yes   U3=Yes   R1=Yes   R2=Yes   R3=Yes
   Joint=193   U1=Yes   U2=Yes   U3=Yes   R1=Yes   R2=Yes   R3=Yes
   Joint=195   U1=Yes   U2=Yes   U3=Yes   R1=Yes   R2=Yes   R3=Yes
   Joint=197   U1=Yes   U2=Yes   U3=Yes   R1=Yes   R2=Yes   R3=Yes
   Joint=199   U1=Yes   U2=Yes   U3=Yes   R1=Yes   R2=Yes   R3=Yes
   Joint=201   U1=Yes   U2=Yes   U3=Yes   R1=Yes   R2=Yes   R3=Yes
# ... 122 like lines cut
 
TABLE:  "LOAD CASE DEFINITIONS"
   Case=DEAD   Type=LinStatic   InitialCond=Zero   DesTypeOpt="Prog Det"   DesignType=Dead   DesActOpt="Prog Det"   DesignAct=Non-Composite   AutoType=None   RunCase=Yes   GUID=2f674b02-c662-43d7-8094-19289c29ba9b
   Case=MODAL   Type=LinModal   InitialCond=Zero   DesTypeOpt="Prog Det"   DesignType=Other   DesActOpt="Prog Det"   DesignAct=Other   AutoType=None   RunCase=No   GUID=87f9f136-38d8-4b6a-be38-ea0dd660d0a5
   Case=Gdat   Type=LinStatic   InitialCond=Zero   DesTypeOpt="Prog Det"   DesignType=Other   DesActOpt="Prog Det"   DesignAct=Other   AutoType=None   RunCase=Yes   GUID=fbd94978-bd65-4cb1-93b3-1a542bfd494a
   Case=Pdat   Type=LinStatic   InitialCond=Zero   DesTypeOpt="Prog Det"   DesignType=Live   DesActOpt="Prog Det"   DesignAct="Short-Term Composite"   AutoType=None   RunCase=Yes   GUID=cbaea17a-2031-471d-b45e-afba828a9f9e
   Case=ALD   Type=LinStatic   InitialCond=Zero   DesTypeOpt="Prog Det"   DesignType=Live   DesActOpt="Prog Det"   DesignAct="Short-Term Composite"   AutoType=None   RunCase=Yes   GUID=9c488147-0e9a-4325-9e8b-e8c0f4636ede
   Case=HH   Type=LinStatic   InitialCond=Zero   DesTypeOpt="Prog Det"   DesignType=Live   DesActOpt="Prog Det"   DesignAct="Short-Term Composite"   AutoType=None   RunCase=Yes   GUID=20d4e6f7-5e2b-4cab-8f67-f8539f77251f
 
TABLE:  "LOAD PATTERN DEFINITIONS"
   LoadPat=DEAD   DesignType=Dead   SelfWtMult=1   GUID=6f6c99f5-64f4-489d-907a-a37c7b0b35d3
   LoadPat=Gdat   DesignType=Live   SelfWtMult=0   GUID=0f856791-d163-452d-a261-9f8e78344204
   LoadPat=Pdat   DesignType=Live   SelfWtMult=0   GUID=97ede302-855c-4242-8e2a-254895a2ae9d
   LoadPat=ALD   DesignType=Live   SelfWtMult=0   GUID=a4a57db1-bc40-4f97-99e4-c8fb8928bf6f
   LoadPat=HH   DesignType=Live   SelfWtMult=0   GUID=98d0dfe2-c89f-4cf2-b87d-145c7868d7b9
 
TABLE:  "MASS SOURCE"
   MassSource=MSSSRC1   Elements=Yes   Masses=Yes   Loads=No   IsDefault=Yes
 
TABLE:  "MATERIAL PROPERTIES 01 - GENERAL"
   Material=A416Gr270   Type=Tendon   Grade="Grade 270"   SymType=Uniaxial   TempDepend=No   Color=Magenta   GUID=acd105b7-5018-4076-aab5-7d2bdb4012bd   Notes="ASTM A416 Grade 270 8/28/2026 6:36:35 PM"
   Material=BTM350   Type=Concrete   Grade="f'c 4000 psi"   SymType=Isotropic   TempDepend=No   Color=Red   Notes="GB GB50010 C30 3/20/2016 8:58:07 PM"
   Material=BTM600   Type=Concrete   Grade="f'c 4000 psi"   SymType=Isotropic   TempDepend=No   Color=Red   Notes="GB GB50010 C30 3/20/2016 8:58:07 PM"
   Material=C30   Type=Concrete   Grade="f'c 4000 psi"   SymType=Isotropic   TempDepend=No   Color=Red   Notes="GB GB50010 C30 3/20/2016 8:58:07 PM"
   Material=Q345   Type=Steel   Grade="Grade 50"   SymType=Isotropic   TempDepend=No   Color=Cyan   Notes="GB Q345 3/20/2016 8:58:07 PM"
 
TABLE:  "MATERIAL PROPERTIES 02 - BASIC MECHANICAL PROPERTIES"
   Material=A416Gr270   UnitWeight=7.84904757236607   UnitMass=0.80038007068661   E1=20037484.3449687   A1=1.16999994421006E-05
   Material=BTM350   UnitWeight=2.5   UnitMass=0.254929048055605   E1=3000000   G12=1250000   U12=0.2   A1=1E-05
   Material=BTM600   UnitWeight=0   UnitMass=0   E1=3750000   G12=1562500   U12=0.2   A1=1E-05
   Material=C30   UnitWeight=2.54929048055605   UnitMass=0.260027629016717   E1=3059148.57666726   G12=1274645.24027802   U12=0.2   A1=1E-05
   Material=Q345   UnitWeight=8.004772108946   UnitMass=0.815772953777936   E1=20394323.8444484   G12=7843970.70940323   U12=0.3   A1=1.17E-05
 
TABLE:  "MATERIAL PROPERTIES 03A - STEEL DATA"
   Material=Q345   Fy=35180.2086316735   Fu=52005.5258033435   EffFy=38749.215304452   EffFu=57104.1067644556   SSCurveOpt=Simple   SSHysType=Kinematic   SHard=0.015   SMax=0.11   SRup=0.17   FinalSlope=-0.1   CoupModType="Von Mises"
 
TABLE:  "MATERIAL PROPERTIES 03B - CONCRETE DATA"
   Material=BTM350   Fc=3059.14857666726   eFc=2812.27850455701   LtWtConc=No   SSCurveOpt=Mander   SSHysType=Takeda   SFc=0.002   SCap=0.005   FinalSlope=-0.1   FAngle=0   DAngle=0   CoupModType="Modified Darwin-Pecknold"
   Material=BTM600   Fc=3059.14857666726   eFc=2812.27850455701   LtWtConc=No   SSCurveOpt=Mander   SSHysType=Takeda   SFc=0.002   SCap=0.005   FinalSlope=-0.1   FAngle=0   DAngle=0   CoupModType="Modified Darwin-Pecknold"
   Material=C30   Fc=3059.14857666726   eFc=2812.27850455701   LtWtConc=No   SSCurveOpt=Mander   SSHysType=Takeda   SFc=0.002   SCap=0.005   FinalSlope=-0.1   FAngle=0   DAngle=0   CoupModType="Modified Darwin-Pecknold"
 
TABLE:  "MATERIAL PROPERTIES 03F - TENDON DATA"
   Material=A416Gr270   Fy=172322.365366731   Fu=189828.799057598   SSCurveOpt="270 ksi"   SSHysType=Kinematic   FinalSlope=-0.1   CoupModType="Von Mises"
 
TABLE:  "MATERIAL PROPERTIES 03J - COUPLED NONLINEAR VON MISES DATA"
   Material=A416Gr270   YieldStress=172322.365366731   LinIsoHard=No   LinKinHard=No   NLIsoSaHard=No
   Material=Q345   YieldStress=38749.215304452   LinIsoHard=No   LinKinHard=No   NLIsoSaHard=No
 
TABLE:  "MATERIAL PROPERTIES 06 - DAMPING PARAMETERS"
   Material=A416Gr270   ModalRatio=0   VisMass=0   VisStiff=0   HysMass=0   HysStiff=0
   Material=BTM350   ModalRatio=0   VisMass=0   VisStiff=0   HysMass=0   HysStiff=0
   Material=BTM600   ModalRatio=0   VisMass=0   VisStiff=0   HysMass=0   HysStiff=0
   Material=C30   ModalRatio=0   VisMass=0   VisStiff=0   HysMass=0   HysStiff=0
   Material=Q345   ModalRatio=0   VisMass=0   VisStiff=0   HysMass=0   HysStiff=0
 
TABLE:  "MATERIAL PROPERTIES 09 - ACCEPTANCE CRITERIA"
   Material=A416Gr270   IOTens=0.015   LSTens=0.023   CPTens=0.03   IOComp=-0.015   LSComp=-0.023   CPComp=-0.03
   Material=BTM350   IOTens=0.01   LSTens=0.02   CPTens=0.05   IOComp=-0.003   LSComp=-0.006   CPComp=-0.015   IgnoreTens=Yes
   Material=BTM600   IOTens=0.01   LSTens=0.02   CPTens=0.05   IOComp=-0.003   LSComp=-0.006   CPComp=-0.015   IgnoreTens=Yes
   Material=C30   IOTens=0.01   LSTens=0.02   CPTens=0.05   IOComp=-0.003   LSComp=-0.006   CPComp=-0.015   IgnoreTens=Yes
   Material=Q345   IOTens=0.01   LSTens=0.02   CPTens=0.05   IOComp=-0.005   LSComp=-0.01   CPComp=-0.02
 
TABLE:  "OPTIONS - COLORS - DISPLAY"
   DeviceType=Screen   Points=White   LinesFrame=Blue   LinesFrmDL=Blue   LinesCable=Green   LinesTendon=Green   SpringLinks=Green   Restraints=Green   Releases=Green   Axes=Cyan   Text=Green   ShadowLines=Gray8Dark   GuideLines=Gray8Dark _
        Highlight=Red   Selection=10504778   AreaFillBot=Red   AreaFillTop=16744703   AreaFillSd=Red   AreaEdge=DarkRed   SolidF1=Red   SolidF2=Blue   SolidF3=Green   SolidF4=Yellow   SolidF5=White   SolidF6=Cyan   SolidEdge=DarkRed _
        Floor=Gray4   Background=Black   BGLowLeft=Black   BGLowRight=Black   BGUpRight=Black   Darkness=0
   DeviceType=Printer   Points=Gray8Dark   LinesFrame=Black   LinesFrmDL=Gray4   LinesCable=Black   LinesTendon=Black   SpringLinks=Gray8Dark   Restraints=Gray8Dark   Releases=Gray4   Axes=Black   Text=Black   ShadowLines=Gray4 _
        GuideLines=Gray4   Highlight=Black   Selection=Black   AreaFillBot=Gray4   AreaFillTop=Gray8Dark   AreaFillSd=Gray4   AreaEdge=Black   SolidF1=Gray1Light   SolidF2=Gray2   SolidF3=Gray3   SolidF4=Gray4   SolidF5=Gray5 _
        SolidF6=Gray6   SolidEdge=Black   Floor=Gray4   Background=White   BGLowLeft=White   BGLowRight=White   BGUpRight=White   Darkness=0.5
   DeviceType="Color Printer"   Points=Blue   LinesFrame=Blue   LinesFrmDL=Blue   LinesCable=Green   LinesTendon=Green   SpringLinks=Green   Restraints=Green   Releases=Green   Axes=Cyan   Text=Black   ShadowLines=Gray8Dark _
        GuideLines=Gray8Dark   Highlight=Red   Selection=10504778   AreaFillBot=Red   AreaFillTop=16744703   AreaFillSd=Red   AreaEdge=DarkRed   SolidF1=Red   SolidF2=Blue   SolidF3=Green   SolidF4=Yellow   SolidF5=White   SolidF6=Cyan _
        SolidEdge=DarkRed   Floor=Gray4   Background=White   BGLowLeft=White   BGLowRight=White   BGUpRight=White   Darkness=0.5
 
TABLE:  "OPTIONS - COLORS - OUTPUT"
   DeviceType=Screen   Contour1=13107400   Contour2=6553828   Contour3=Red   Contour4=16639   Contour5=Orange   Contour6=43775   Contour7=54527   Contour8=Yellow   Contour9=65408   Contour10=Green   Contour11=8453888   Contour12=Cyan _
        Contour13=16755200   Contour14=16733440   Contour15=Blue   Transpare=0.5   Ratio1=Cyan   Ratio2=Green   Ratio3=Yellow   Ratio4=Orange   Ratio5=Red   RatioNotD=Gray4   RatioNotC=Red   RatioVal1=0.5   RatioVal2=0.7   RatioVal3=0.9 _
        RatioVal4=1   DFillPos=Blue   DFillNeg=Red   DFillRPos=Green   DFillRNeg=Green
   DeviceType=Printer   Contour1=Black   Contour2=3158064   Contour3=4210752   Contour4=5263440   Contour5=6316128   Contour6=7368816   Contour7=Gray8Dark   Contour8=Gray7   Contour9=Gray6   Contour10=Gray5   Contour11=Gray4 _
        Contour12=Gray3   Contour13=Gray2   Contour14=Gray1Light   Contour15=White   Transpare=0   Ratio1=Gray2   Ratio2=Gray4   Ratio3=Gray8Dark   Ratio4=4210752   Ratio5=Black   RatioNotD=Gray4   RatioNotC=Black   RatioVal1=0.5 _
        RatioVal2=0.7   RatioVal3=0.9   RatioVal4=1   DFillPos=Gray8Dark   DFillNeg=Gray8Dark   DFillRPos=4210752   DFillRNeg=4210752
   DeviceType="Color Printer"   Contour1=13107400   Contour2=6553828   Contour3=Red   Contour4=16639   Contour5=Orange   Contour6=43775   Contour7=54527   Contour8=Yellow   Contour9=65408   Contour10=Green   Contour11=8453888 _
        Contour12=Cyan   Contour13=16755200   Contour14=16733440   Contour15=Blue   Transpare=0   Ratio1=Cyan   Ratio2=Green   Ratio3=Yellow   Ratio4=Orange   Ratio5=Red   RatioNotD=Gray4   RatioNotC=Red   RatioVal1=0.5   RatioVal2=0.7 _
        RatioVal3=0.9   RatioVal4=1   DFillPos=Blue   DFillNeg=Red   DFillRPos=Green   DFillRNeg=Green
 
TABLE:  "PREFERENCES - ALUMINUM DESIGN - AA 2015"
   THDesign=Envelopes   SRatioLimit=1   Provision=ASD   LatFact=1.33333333333333   UseLatFact=No   Bridge=No   OmegaTy=1.65   OmegaTr=1.95   OmegaC=1.65   OmegaBo=1.65   OmegaBr=1.95   OmegaVo=1.65   OmegaVr=1.95
 
TABLE:  "PREFERENCES - COLD FORMED DESIGN - AISI-ASD96"
   THDesign=Envelopes   FrameType="Braced Frame"   SRatioLimit=1   MaxIter=1   OmegaBS=1.67   OmegaBUS=1.67   OmegaBLTB=1.67   OmegaVS=1.67   OmegaVNS=1.5   OmegaT=1.67   OmegaC=1.8
 
TABLE:  "PREFERENCES - CONCRETE DESIGN - ACI 318-19"
   THDesign=Envelopes   NumCurves=24   NumPoints=11   MinEccen=Yes   BCCDesign=Yes   IgnoreBPu=Yes   CTorsion=Yes   PatLLF=0.75   UFLimit=0.95   SeisCat=D   Rho=1   Sds=0.5   PhiT=0.9   PhiCTied=0.65   PhiCSpiral=0.75   PhiV=0.75 _
        PhiVSeismic=0.6   PhiVJoint=0.85   TanTheta=1
 
TABLE:  "PREFERENCES - CONCRETE SHELL DESIGN - EUROCODE 2-2004"
   Country="CEN Default"   GammaS=1.15   GammaC=1.5   AlphaCC=1
 
TABLE:  "PREFERENCES - DIMENSIONAL"
   MergeTol=0.001   FineGrid=0.25   Nudge=0.25   SelectTol=3   SnapTol=12   SLineThick=1   PLineThick=4   MaxFont=8   MinFont=3   AutoZoom=10   ShrinkFact=70   TextFileLen=240
 
TABLE:  "PREFERENCES - STEEL DESIGN - AISC360-05-IBC2006"
   THDesign=Envelopes   FrameType=SMF   PatLLF=0.75   SRatioLimit=0.95   MaxIter=1   SDC=D   SeisCode=Yes   SeisLoad=Yes   ImpFactor=1   SystemRho=1   SystemSds=0.5   SystemR=8   SystemCd=5.5   Omega0=3   Provision=LRFD _
        AMethod="Direct Analysis"   SOMethod="General 2nd Order"   SRMethod="Tau-b Fixed"   NLCoeff=0.002   PhiB=0.9   PhiC=0.9   PhiTY=0.9   PhiTF=0.75   PhiV=0.9   PhiVRolledI=1   PhiVT=0.9   PlugWeld=Yes   HSSWelding=ERW   HSSReduceT=No _
        CheckDefl=No   DLRat=120   SDLAndLLRat=120   LLRat=360   TotalRat=240   NetRat=240
 
TABLE:  "PROGRAM CONTROL"
   ProgramName=SAP2000   Version=24.0.0   CurrUnits="Tonf, m, C"   SteelCode=AISC360-05/IBC2006   ConcCode="ACI 318-19"   AlumCode="AA 2015"   ColdCode=AISI-ASD96   RegenHinge=Yes
 
TABLE:  "PROJECT INFORMATION"
   Item="Company Name"   Data=Microsoft
   Item="Client Name"
   Item="Project Name"
   Item="Project Number"
   Item="Model Name"
   Item="Model Description"
   Item="Revision Number"
   Item="Frame Type"
   Item=Engineer
   Item=Checker
   Item=Supervisor
   Item="Issue Code"
   Item="Design Code"
 
TABLE:  "REBAR SIZES"
   RebarID=#2   Area=3.2258E-05   Diameter=0.00635
   RebarID=#3   Area=7.09675996154547E-05   Diameter=0.009525
   RebarID=#4   Area=0.000129032001922727   Diameter=0.0127
   RebarID=#5   Area=0.000199999601538181   Diameter=0.015875
   RebarID=#6   Area=0.000283870398461819   Diameter=0.01905
   RebarID=#7   Area=0.000387096015381813   Diameter=0.022225
   RebarID=#8   Area=0.000509676413843632   Diameter=0.0254
   RebarID=#9   Area=0.00064516   Diameter=0.0286512005329132
   RebarID=#10   Area=0.00081935318769455   Diameter=0.0322579995155334
   RebarID=#11   Area=0.00100644956308365   Diameter=0.0358139991521835
   RebarID=#14   Area=0.00145161   Diameter=0.0430021989583969
   RebarID=#18   Area=0.00258064   Diameter=0.0573277992248535
   RebarID=10M   Area=0.000100000004162606   Diameter=0.0113000003604438
   RebarID=15M   Area=0.000200000008325212   Diameter=0.0160000002402959
   RebarID=20M   Area=0.000300000012487818   Diameter=0.0195000002928606
   RebarID=25M   Area=0.000500000020813031   Diameter=0.0252000011414055
   RebarID=30M   Area=0.000700000029138243   Diameter=0.0299000000675832
   RebarID=35M   Area=0.00100000004162606   Diameter=0.0357000012990997
   RebarID=45M   Area=0.00150000006243909   Diameter=0.0437000014192476
   RebarID=55M   Area=0.00250000010406515   Diameter=0.056400002372922
   RebarID=6d   Area=2.83000004150781E-05   Diameter=0.00600000009011096
   RebarID=8d   Area=5.03000013308514E-05   Diameter=0.00800000012014795
   RebarID=10d   Area=7.85000032676458E-05   Diameter=0.0100000001501849
   RebarID=12d   Area=0.000113000004703745   Diameter=0.0120000001802219
   RebarID=14d   Area=0.000154000006410413   Diameter=0.0140000002102589
   RebarID=16d   Area=0.000201000008366838   Diameter=0.0160000002402959
   RebarID=20d   Area=0.000314000013070583   Diameter=0.0200000003003699
   RebarID=25d   Area=0.000491000020438396   Diameter=0.0250000003754623
   RebarID=26d   Area=0.000531000022103439   Diameter=0.0260000003904808
   RebarID=28d   Area=0.000616000025641654   Diameter=0.0280000004205178
   RebarID=N12   Area=0.000113000004703745   Diameter=0.0120000001802219
   RebarID=N16   Area=0.000201000008366838   Diameter=0.0160000002402959
   RebarID=N20   Area=0.000314000013070583   Diameter=0.0200000003003699
   RebarID=N24   Area=0.00045200001881498   Diameter=0.0240000003604438
   RebarID=N28   Area=0.000616000025641654   Diameter=0.0280000004205178
   RebarID=N32   Area=0.000804000033467353   Diameter=0.0320000004805918
   RebarID=N36   Area=0.00102000004245858   Diameter=0.0360000005406658
 
TABLE:  "SOLID PROPERTY DEFINITIONS"
   SolidProp=Solid1   Material=BTM600   MatAngleA=0   MatAngleB=0   MatAngleC=0   InComp=Yes   Color=Yellow
 
END TABLE DATA
