File D:\ResearchLab\02_Projects\02_Projects\Tap chi XD_SFOA\code\SOO_MPJ\MPJ_Sap\SOO_Cost_W05\MPJ_5.$2k was saved on m/d/yy at h:mm:ss
 
TABLE:  "ACTIVE DEGREES OF FREEDOM"
   UX=Yes   UY=Yes   UZ=Yes   RX=Yes   RY=Yes   RZ=Yes
 
TABLE:  "ANALYSIS OPTIONS"
   Solver=Advanced   SolverProc=Auto   Force32Bit=No   StiffCase=None   GeomMod=None   HingeOpt="In Elements"   NumAThreads=0   MaxFileSize=0   NumDThreads=0   NumRThreads=0   UseMMFiles="Program Determined"   AllowDiff=No
 
TABLE:  "AREA AUTO MESH ASSIGNMENTS"
   Area=238217   MeshType="Number of Elements"   MeshGroup=ALL   Number1=3   Number2=3   LocalEdge=No   LocalFace=No   SuppEdge=No   SuppFace=No   SubMesh=No
   Area=238218   MeshType="Number of Elements"   MeshGroup=ALL   Number1=3   Number2=3   LocalEdge=No   LocalFace=No   SuppEdge=No   SuppFace=No   SubMesh=No
   Area=238219   MeshType="Number of Elements"   MeshGroup=ALL   Number1=3   Number2=3   LocalEdge=No   LocalFace=No   SuppEdge=No   SuppFace=No   SubMesh=No
   Area=238220   MeshType="Number of Elements"   MeshGroup=ALL   Number1=3   Number2=3   LocalEdge=No   LocalFace=No   SuppEdge=No   SuppFace=No   SubMesh=No
   Area=238221   MeshType="Number of Elements"   MeshGroup=ALL   Number1=3   Number2=3   LocalEdge=No   LocalFace=No   SuppEdge=No   SuppFace=No   SubMesh=No
   Area=238222   MeshType="Number of Elements"   MeshGroup=ALL   Number1=3   Number2=3   LocalEdge=No   LocalFace=No   SuppEdge=No   SuppFace=No   SubMesh=No
   Area=238223   MeshType="Number of Elements"   MeshGroup=ALL   Number1=3   Number2=3   LocalEdge=No   LocalFace=No   SuppEdge=No   SuppFace=No   SubMesh=No
   Area=238224   MeshType="Number of Elements"   MeshGroup=ALL   Number1=3   Number2=3   LocalEdge=No   LocalFace=No   SuppEdge=No   SuppFace=No   SubMesh=No
   Area=238225   MeshType="Number of Elements"   MeshGroup=ALL   Number1=3   Number2=3   LocalEdge=No   LocalFace=No   SuppEdge=No   SuppFace=No   SubMesh=No
   Area=238226   MeshType="Number of Elements"   MeshGroup=ALL   Number1=3   Number2=3   LocalEdge=No   LocalFace=No   SuppEdge=No   SuppFace=No   SubMesh=No
   Area=238227   MeshType="Number of Elements"   MeshGroup=ALL   Number1=3   Number2=3   LocalEdge=No   LocalFace=No   SuppEdge=No   SuppFace=No   SubMesh=No
   Area=238228   MeshType="Number of Elements"   MeshGroup=ALL   Number1=3   Number2=3   LocalEdge=No   LocalFace=No   SuppEdge=No   SuppFace=No   SubMesh=No
   Area=238229   MeshType="Number of Elements"   MeshGroup=ALL   Number1=3   Number2=3   LocalEdge=No   LocalFace=No   SuppEdge=No   SuppFace=No   SubMesh=No
   Area=238230   MeshType="Number of Elements"   MeshGroup=ALL   Number1=3   Number2=3   LocalEdge=No   LocalFace=No   SuppEdge=No   SuppFace=No   SubMesh=No
   Area=238231   MeshType="Number of Elements"   MeshGroup=ALL   Number1=3   Number2=3   LocalEdge=No   LocalFace=No   SuppEdge=No   SuppFace=No   SubMesh=No
   Area=238232   MeshType="Number of Elements"   MeshGroup=ALL   Number1=3   Number2=3   LocalEdge=No   LocalFace=No   SuppEdge=No   SuppFace=No   SubMesh=No
   Area=238233   MeshType="Number of Elements"   MeshGroup=ALL   Number1=3   Number2=3   LocalEdge=No   LocalFace=No   SuppEdge=No   SuppFace=No   SubMesh=No
   Area=238234   MeshType="Number of Elements"   MeshGroup=ALL   Number1=3   Number2=3   LocalEdge=No   LocalFace=No   SuppEdge=No   SuppFace=No   SubMesh=No
   Area=238235   MeshType="Number of Elements"   MeshGroup=ALL   Number1=3   Number2=3   LocalEdge=No   LocalFace=No   SuppEdge=No   SuppFace=No   SubMesh=No
   Area=238236   MeshType="Number of Elements"   MeshGroup=ALL   Number1=3   Number2=3   LocalEdge=No   LocalFace=No   SuppEdge=No   SuppFace=No   SubMesh=No
# ... 4 like lines cut
 
TABLE:  "AREA LOADS - UNIFORM"
   Area=238217   LoadPat=LL   CoordSys=GLOBAL   Dir=Gravity   UnifLoad=1.00034158457019
   Area=238218   LoadPat=LL   CoordSys=GLOBAL   Dir=Gravity   UnifLoad=1.00034158457019
   Area=238219   LoadPat=LL   CoordSys=GLOBAL   Dir=Gravity   UnifLoad=1.00034158457019
   Area=238220   LoadPat=LL   CoordSys=GLOBAL   Dir=Gravity   UnifLoad=1.00034158457019
   Area=238221   LoadPat=LL   CoordSys=GLOBAL   Dir=Gravity   UnifLoad=1.00034158457019
   Area=238222   LoadPat=LL   CoordSys=GLOBAL   Dir=Gravity   UnifLoad=1.00034158457019
   Area=238223   LoadPat=LL   CoordSys=GLOBAL   Dir=Gravity   UnifLoad=1.00034158457019
   Area=238224   LoadPat=LL   CoordSys=GLOBAL   Dir=Gravity   UnifLoad=1.00034158457019
   Area=238225   LoadPat=LL   CoordSys=GLOBAL   Dir=Gravity   UnifLoad=1.00034158457019
   Area=238226   LoadPat=LL   CoordSys=GLOBAL   Dir=Gravity   UnifLoad=1.00034158457019
   Area=238227   LoadPat=LL   CoordSys=GLOBAL   Dir=Gravity   UnifLoad=1.00034158457019
   Area=238228   LoadPat=LL   CoordSys=GLOBAL   Dir=Gravity   UnifLoad=1.00034158457019
   Area=238229   LoadPat=LL   CoordSys=GLOBAL   Dir=Gravity   UnifLoad=1.00034158457019
   Area=238230   LoadPat=LL   CoordSys=GLOBAL   Dir=Gravity   UnifLoad=1.00034158457019
   Area=238231   LoadPat=LL   CoordSys=GLOBAL   Dir=Gravity   UnifLoad=1.00034158457019
   Area=238232   LoadPat=LL   CoordSys=GLOBAL   Dir=Gravity   UnifLoad=1.00034158457019
   Area=238233   LoadPat=LL   CoordSys=GLOBAL   Dir=Gravity   UnifLoad=1.00034158457019
   Area=238234   LoadPat=LL   CoordSys=GLOBAL   Dir=Gravity   UnifLoad=1.00034158457019
   Area=238235   LoadPat=LL   CoordSys=GLOBAL   Dir=Gravity   UnifLoad=1.00034158457019
   Area=238236   LoadPat=LL   CoordSys=GLOBAL   Dir=Gravity   UnifLoad=1.00034158457019
# ... 4 like lines cut
 
TABLE:  "AREA SECTION ASSIGNMENTS"
   Area=238217   Section=Deck   MatProp=Default
   Area=238218   Section=Deck   MatProp=Default
   Area=238219   Section=Deck   MatProp=Default
   Area=238220   Section=Deck   MatProp=Default
   Area=238221   Section=Deck   MatProp=Default
   Area=238222   Section=Deck   MatProp=Default
   Area=238223   Section=Deck   MatProp=Default
   Area=238224   Section=Deck   MatProp=Default
   Area=238225   Section=Deck   MatProp=Default
   Area=238226   Section=Deck   MatProp=Default
   Area=238227   Section=Deck   MatProp=Default
   Area=238228   Section=Deck   MatProp=Default
   Area=238229   Section=Deck   MatProp=Default
   Area=238230   Section=Deck   MatProp=Default
   Area=238231   Section=Deck   MatProp=Default
   Area=238232   Section=Deck   MatProp=Default
   Area=238233   Section=Deck   MatProp=Default
   Area=238234   Section=Deck   MatProp=Default
   Area=238235   Section=Deck   MatProp=Default
   Area=238236   Section=Deck   MatProp=Default
# ... 4 like lines cut
 
TABLE:  "AREA SECTION PROPERTIES"
   Section=Deck   Material=BTCT   MatAngle=0   AreaType=Shell   Type=Shell-Thin   DrillDOF=Yes   Thickness=0.3   BendThick=0.3   Color=Green   F11Mod=1   F22Mod=1   F12Mod=1   M11Mod=1   M22Mod=1   M12Mod=1   V13Mod=1   V23Mod=1   MMod=1 _
        WMod=1   Notes="Added 24-Feb-23 16:56:47"
 
TABLE:  "AREA SECTION PROPERTY DESIGN PARAMETERS"
   Section=Deck   RebarMat=None   RebarOpt=Default
 
TABLE:  "AREA SECTION PROPERTY - TIME DEPENDENT"
   Section=Deck   TypeSize=User   AutoSFSize=1   UserValSize=0.1
 
TABLE:  "AUTO COMBINATION OPTION DATA 01 - GENERAL"
   DesignType=Concrete   AutoGen=Yes
 
TABLE:  "AUTO COMBINATION OPTION DATA 02 - USER DATA"
   DesignType=Concrete   LSType=Strength   LCName=DEAD
   DesignType=Concrete   LSType=Strength   LCName=LL
 
TABLE:  "AUTO WAVE 3 - WAVE CHARACTERISTICS - GENERAL"
   WaveChar=Default   WaveType="From Theory"   KinFactor=1   SWaterDepth=45   WaveHeight=18   WavePeriod=12   WaveTheory=Linear
 
TABLE:  "CASE - MODAL 1 - GENERAL"
   Case=MODAL   ModeType=Eigen   MaxNumModes=12   MinNumModes=1   EigenShift=0   EigenCutoff=0   EigenTol=1E-09   AutoShift=Yes
 
TABLE:  "CASE - STATIC 1 - LOAD ASSIGNMENTS"
   Case=DEAD   LoadType="Load pattern"   LoadName=DEAD   LoadSF=1
   Case=LL   LoadType="Load pattern"   LoadName=LL   LoadSF=1
 
TABLE:  "COMBINATION DEFINITIONS"
   ComboName=COMB1   ComboType="Linear Add"   AutoDesign=No   CaseName=DEAD   ScaleFactor=1   SteelDesign=None   ConcDesign=Strength   AlumDesign=None   ColdDesign=None
   ComboName=COMB2   ComboType="Linear Add"   AutoDesign=No   CaseName=DEAD   ScaleFactor=1   SteelDesign=None   ConcDesign=Strength   AlumDesign=None   ColdDesign=None
   ComboName=COMB2   CaseName=LL   ScaleFactor=1
   ComboName=BAO   ComboType=Envelope   AutoDesign=No   CaseName=COMB1   ScaleFactor=1   SteelDesign=None   ConcDesign=Strength   AlumDesign=None   ColdDesign=None
   ComboName=BAO   CaseName=COMB2   ScaleFactor=1
   ComboName=DCON1   ComboType="Linear Add"   AutoDesign=Yes   CaseName=DEAD   ScaleFactor=1.4   SteelDesign=None   ConcDesign=Strength   AlumDesign=None   ColdDesign=None   GUID=bb4fff9a-98b5-44d1-9fde-34d92700a8e9   Notes="Dead Only; Strength"
   ComboName=DCON2   ComboType="Linear Add"   AutoDesign=Yes   CaseName=DEAD   ScaleFactor=1.25   SteelDesign=None   ConcDesign=Strength   AlumDesign=None   ColdDesign=None   GUID=505bcda7-6fac-4dd0-b03e-c591d1ffc6ce   Notes="Dead + Live; Strength"
   ComboName=DCON2   CaseName=LL   ScaleFactor=1.5
 
TABLE:  "CONNECTIVITY - AREA"
   Area=238217   Joint1=697844   Joint2=697805   Joint3=697778   Joint4=697777   GUID=e166a993-7d0d-418b-8538-9e2c552d7b48
   Area=238218   Joint1=697777   Joint2=697778   Joint3=697780   Joint4=697779   GUID=e37f5e02-a598-4ff8-807f-bdd47659dcfc
   Area=238219   Joint1=697779   Joint2=697780   Joint3=697782   Joint4=697781   GUID=11d6c653-5729-4c9e-a9a6-992c48d8f6b7
   Area=238220   Joint1=697781   Joint2=697782   Joint3=697784   Joint4=697783   GUID=35e8f5f7-3239-4140-96f7-31b06d01c1c0
   Area=238221   Joint1=697783   Joint2=697784   Joint3=697786   Joint4=697785   GUID=758dc144-bdf5-4a39-883c-a852ac62652c
   Area=238222   Joint1=697785   Joint2=697786   Joint3=697788   Joint4=697787   GUID=f1206141-5cd7-4f63-8847-4c566f1a4b00
   Area=238223   Joint1=697787   Joint2=697788   Joint3=697790   Joint4=697789   GUID=227d597b-a33c-4483-81c9-a5e5b7bf5001
   Area=238224   Joint1=697789   Joint2=697790   Joint3=697807   Joint4=697845   GUID=0e27d523-0651-4b9a-8ea2-927b442399b7
   Area=238225   Joint1=697805   Joint2=697806   Joint3=697791   Joint4=697778   GUID=0e0eb883-03d5-4a5f-8007-880eb2094acf
   Area=238226   Joint1=697778   Joint2=697791   Joint3=697792   Joint4=697780   GUID=27183397-862a-45eb-85fc-85c49ac931b2
   Area=238227   Joint1=697780   Joint2=697792   Joint3=697793   Joint4=697782   GUID=10bc26c2-9fd2-4cd9-b4ef-ae64d1a3c1dc
   Area=238228   Joint1=697782   Joint2=697793   Joint3=697794   Joint4=697784   GUID=643a7b65-2814-4294-955f-5a8be417312c
   Area=238229   Joint1=697784   Joint2=697794   Joint3=697795   Joint4=697786   GUID=c385fc06-587f-4f50-9e20-dffa49e9856e
   Area=238230   Joint1=697786   Joint2=697795   Joint3=697796   Joint4=697788   GUID=33b7d4be-0e2d-4514-9672-417f6bff4793
   Area=238231   Joint1=697788   Joint2=697796   Joint3=697797   Joint4=697790   GUID=e3337c85-5b79-4261-ab37-ce56b8c27d7c
   Area=238232   Joint1=697790   Joint2=697797   Joint3=697808   Joint4=697807   GUID=537138f6-065e-4db5-ac12-c3e1ce2a971e
   Area=238233   Joint1=697806   Joint2=697846   Joint3=697798   Joint4=697791   GUID=338eabf6-8bd4-4fab-a3eb-9b8e0074a846
   Area=238234   Joint1=697791   Joint2=697798   Joint3=697799   Joint4=697792   GUID=2773d92f-e1d1-4377-9468-b4cf04c91bc4
   Area=238235   Joint1=697792   Joint2=697799   Joint3=697800   Joint4=697793   GUID=8564781e-1d30-4521-958a-cfba4cd623ef
   Area=238236   Joint1=697793   Joint2=697800   Joint3=697801   Joint4=697794   GUID=d1f61ca3-07dd-4a9d-b9a1-9e02c72b579f
   Area=238237   Joint1=697794   Joint2=697801   Joint3=697802   Joint4=697795   GUID=7f5f064a-d9d5-4a46-854d-1753dd32ce34
   Area=238238   Joint1=697795   Joint2=697802   Joint3=697803   Joint4=697796   GUID=72e80cbc-0e73-48f6-a178-6c7c678e9b75
   Area=238239   Joint1=697796   Joint2=697803   Joint3=697804   Joint4=697797   GUID=e3131614-1b30-4539-b0b1-78ad360c49e9
   Area=238240   Joint1=697797   Joint2=697804   Joint3=697847   Joint4=697808   GUID=91783531-d319-40d4-8d69-824ea001bce7
 
TABLE:  "CONNECTIVITY - FRAME"
   Frame=782260   JointI=697777   JointJ=697778   IsCurved=No   GUID=562b9dd4-de1e-4968-83da-c6d9c94d312e
   Frame=782261   JointI=697779   JointJ=697780   IsCurved=No   GUID=b9ab0af7-de9a-47c3-a66c-5d525a07e48e
   Frame=782262   JointI=697781   JointJ=697782   IsCurved=No   GUID=c08fda5d-5ef9-4992-8a09-aedd7578d6dc
   Frame=782263   JointI=697783   JointJ=697784   IsCurved=No   GUID=723421af-0ff5-49c3-8361-0cdf9b884afa
   Frame=782264   JointI=697785   JointJ=697786   IsCurved=No   GUID=d5b61abd-c008-4e16-bbaf-fdd8757244f3
   Frame=782265   JointI=697787   JointJ=697788   IsCurved=No   GUID=89d0f878-ce61-4f64-8a58-30254091a3c5
   Frame=782266   JointI=697789   JointJ=697790   IsCurved=No   GUID=2294f60b-4f7b-4bdd-b7ed-c5dd9d5601ba
   Frame=782267   JointI=697778   JointJ=697791   IsCurved=No   GUID=6de5bc3e-7425-4f9d-877a-0f511e2db329
   Frame=782268   JointI=697780   JointJ=697792   IsCurved=No   GUID=3e54f7f4-604f-4bf3-b1e9-a70b492f6966
   Frame=782269   JointI=697782   JointJ=697793   IsCurved=No   GUID=2d717218-e6d0-4b1a-b02b-f1c8a8ae72aa
   Frame=782270   JointI=697784   JointJ=697794   IsCurved=No   GUID=8d1d845d-5c6b-420f-8815-9fe08ca4caec
   Frame=782271   JointI=697786   JointJ=697795   IsCurved=No   GUID=1657dd79-e3f7-46ae-b2d0-774b1356ecdd
   Frame=782272   JointI=697788   JointJ=697796   IsCurved=No   GUID=4604bd75-7f21-46a2-a42f-d6e78c991b24
   Frame=782273   JointI=697790   JointJ=697797   IsCurved=No   GUID=6e9ca729-cc63-4818-97ed-a4e755daac42
   Frame=782274   JointI=697791   JointJ=697798   IsCurved=No   GUID=12b3d57f-3507-4d0b-85f6-3cd1edbd302c
   Frame=782275   JointI=697792   JointJ=697799   IsCurved=No   GUID=ce39fe76-fae6-47a2-95be-dc2f08cc8703
   Frame=782276   JointI=697793   JointJ=697800   IsCurved=No   GUID=3c574991-ca63-445f-9778-ee932261ed65
   Frame=782277   JointI=697794   JointJ=697801   IsCurved=No   GUID=2dbb51f2-59d6-4d47-baa5-3d3decf01d64
   Frame=782278   JointI=697795   JointJ=697802   IsCurved=No   GUID=24f7e5b5-4016-481c-a0e6-a3568bb0a24c
   Frame=782279   JointI=697796   JointJ=697803   IsCurved=No   GUID=be4c1c0b-452c-4c11-af08-f5450944511a
   Frame=782280   JointI=697797   JointJ=697804   IsCurved=No   GUID=6b8ac2f7-9baf-4e6f-b05f-956ff9bd5a44
   Frame=782281   JointI=697805   JointJ=697778   IsCurved=No   GUID=69563595-ff03-408b-b33c-21e212f138c7
   Frame=782282   JointI=697806   JointJ=697791   IsCurved=No   GUID=d0068b5b-ac3e-45f1-86e1-fad5aab55597
   Frame=782283   JointI=697778   JointJ=697780   IsCurved=No   GUID=affd7a0f-271a-4b5e-9561-05b4766d878a
   Frame=782284   JointI=697791   JointJ=697792   IsCurved=No   GUID=571c89b7-30d4-4d27-9748-5211e326920a
   Frame=782285   JointI=697780   JointJ=697782   IsCurved=No   GUID=bf6538c4-c085-4106-bf85-c5ac8d1104ea
   Frame=782286   JointI=697792   JointJ=697793   IsCurved=No   GUID=efc53250-58bf-4ee5-b482-43572c351605
   Frame=782287   JointI=697782   JointJ=697784   IsCurved=No   GUID=79f9010a-cf90-4969-94e6-a37447cf1c2c
   Frame=782288   JointI=697793   JointJ=697794   IsCurved=No   GUID=030ba1bf-f8a8-43bd-8bed-5ff6549790a1
   Frame=782289   JointI=697784   JointJ=697786   IsCurved=No   GUID=899df862-7dfc-47f7-88df-f604663f16ff
   Frame=782290   JointI=697794   JointJ=697795   IsCurved=No   GUID=f78a2fe8-b5d7-4970-8bf5-ee04304e7c23
   Frame=782291   JointI=697786   JointJ=697788   IsCurved=No   GUID=9aa24b25-d621-4cf8-a596-2d06f6f4042e
   Frame=782292   JointI=697795   JointJ=697796   IsCurved=No   GUID=53b5c81c-fb19-4d67-ba78-628d9199f8b8
   Frame=782293   JointI=697788   JointJ=697790   IsCurved=No   GUID=c8e4b470-3cd5-4bc8-a8eb-5ea4e2c6d335
   Frame=782294   JointI=697796   JointJ=697797   IsCurved=No   GUID=9d7a0e48-0898-41b6-b028-62117dcfac5e
   Frame=782295   JointI=697790   JointJ=697807   IsCurved=No   GUID=70b21167-b858-4bab-ad33-8773d8950e12
   Frame=782296   JointI=697797   JointJ=697808   IsCurved=No   GUID=c555de00-2ca0-473b-bd04-fb43a4a6f12d
   Frame=782297   JointI=697778   JointJ=697809   IsCurved=No   GUID=e9d707ec-d190-4c22-a82e-ff1ae96f98ab
   Frame=782298   JointI=697809   JointJ=697810   IsCurved=No   GUID=58cd5ed3-8756-4fff-bb63-098a15dc4b55
   Frame=782299   JointI=697810   JointJ=697811   IsCurved=No   GUID=19e9a245-9d18-40fd-bc4e-488d9d763735
   Frame=782300   JointI=697780   JointJ=697812   IsCurved=No   GUID=e775eb16-f61b-4f48-85e7-d13048df4463
   Frame=782301   JointI=697812   JointJ=697813   IsCurved=No   GUID=e5e60d36-7078-4750-8fa0-d1157fbd97c4
   Frame=782302   JointI=697813   JointJ=697814   IsCurved=No   GUID=945ab405-a6f6-46a3-b636-6e6b68981404
   Frame=782303   JointI=697782   JointJ=697815   IsCurved=No   GUID=e89cad2d-2573-4fca-9e8e-ae339f8b1335
   Frame=782304   JointI=697815   JointJ=697816   IsCurved=No   GUID=8b031617-b1b1-4ec7-ad55-6c9ab9a9a171
   Frame=782305   JointI=697816   JointJ=697817   IsCurved=No   GUID=44e7d0c5-228e-42e4-b5e8-2360ae521a61
   Frame=782306   JointI=697784   JointJ=697818   IsCurved=No   GUID=f9dfa8ea-dc40-4130-8bf9-acc80b446263
   Frame=782307   JointI=697818   JointJ=697819   IsCurved=No   GUID=aba0cdd7-c936-49ab-b2c8-22e3e6f2e637
   Frame=782308   JointI=697819   JointJ=697820   IsCurved=No   GUID=245911c9-93a4-46ef-8ea4-0b0f18ffd317
   Frame=782309   JointI=697786   JointJ=697821   IsCurved=No   GUID=bf94952a-cd38-4b70-a911-1245554190cf
   Frame=782310   JointI=697821   JointJ=697822   IsCurved=No   GUID=d0af464b-6223-4ab7-a7ea-a6b7fa6a745d
   Frame=782311   JointI=697822   JointJ=697823   IsCurved=No   GUID=b373ed4c-9983-40fc-b0ac-b8c541d9a7bb
   Frame=782312   JointI=697788   JointJ=697824   IsCurved=No   GUID=ebe40206-9793-4ed3-be35-a35fbcc6cb45
   Frame=782313   JointI=697824   JointJ=697825   IsCurved=No   GUID=35106bd1-3a1c-4e95-83bb-d8c0143fac99
   Frame=782314   JointI=697825   JointJ=697826   IsCurved=No   GUID=8b486266-b0c1-4622-bd9f-b755b14d11ff
   Frame=782315   JointI=697790   JointJ=697827   IsCurved=No   GUID=a4190299-f694-4afa-b01f-7c27f79bb797
   Frame=782316   JointI=697827   JointJ=697828   IsCurved=No   GUID=a9a9caaf-3a35-4b78-8128-e61a46c7da75
   Frame=782317   JointI=697828   JointJ=697829   IsCurved=No   GUID=9a789630-5a29-4cdd-9638-45a6a2f4f3c8
   Frame=782318   JointI=697791   JointJ=697830   IsCurved=No   GUID=4f9b1bef-b56f-4c5b-b303-421531c90ee2
   Frame=782319   JointI=697830   JointJ=697831   IsCurved=No   GUID=a5059e00-b108-4b15-9411-2a35575c25e6
   Frame=782320   JointI=697792   JointJ=697832   IsCurved=No   GUID=8f62fe79-08b7-4021-9ac8-bf558d884b2d
   Frame=782321   JointI=697832   JointJ=697833   IsCurved=No   GUID=c7cb8cf6-2a51-43b4-8f3b-ace886adfdfb
   Frame=782322   JointI=697793   JointJ=697834   IsCurved=No   GUID=ca5ab2a7-2442-4832-9429-15bd83ad7a56
   Frame=782323   JointI=697834   JointJ=697835   IsCurved=No   GUID=c9e768f3-fb22-4977-af0b-83689d4e91d8
   Frame=782324   JointI=697794   JointJ=697836   IsCurved=No   GUID=d2650c5a-d1cf-4691-81ce-112d4bf52791
   Frame=782325   JointI=697836   JointJ=697837   IsCurved=No   GUID=954452a1-2a79-44c8-a532-38b96d186d87
   Frame=782326   JointI=697795   JointJ=697838   IsCurved=No   GUID=e74c57c7-d92e-4a3e-9677-bf94f361c61f
   Frame=782327   JointI=697838   JointJ=697839   IsCurved=No   GUID=ea01515a-9c78-4171-8b79-8ce9408b788f
   Frame=782328   JointI=697796   JointJ=697840   IsCurved=No   GUID=46a1b137-8134-4ee7-8094-c7512d032815
   Frame=782329   JointI=697840   JointJ=697841   IsCurved=No   GUID=72500c0e-d944-4c50-9029-1d172354bcaf
   Frame=782330   JointI=697797   JointJ=697842   IsCurved=No   GUID=508ef688-c345-465d-a92e-0694a91aa91a
   Frame=782331   JointI=697842   JointJ=697843   IsCurved=No   GUID=da1bf803-7357-4a10-b79a-5a51b26d4859
   Frame=782332   JointI=697809   JointJ=697812   IsCurved=No   GUID=abceb54a-c67f-44c7-b64f-fa5d5c9ee2f5
   Frame=782333   JointI=697812   JointJ=697815   IsCurved=No   GUID=f7406449-1d5f-4ed3-8a6e-3f4ddbb3471d
   Frame=782334   JointI=697815   JointJ=697818   IsCurved=No   GUID=1cc94dbe-2a22-47e1-8ad1-bf0766d85850
   Frame=782335   JointI=697818   JointJ=697821   IsCurved=No   GUID=d0100bb6-6b67-4873-b155-920af2821a0d
   Frame=782336   JointI=697821   JointJ=697824   IsCurved=No   GUID=ccedf940-001d-4442-aeb9-d6faced9bf5a
   Frame=782337   JointI=697824   JointJ=697827   IsCurved=No   GUID=328c0596-a0b3-4126-87dd-d8adb7a4f90e
 
TABLE:  "COORDINATE SYSTEMS"
   Name=GLOBAL   Type=Cartesian   X=0   Y=0   Z=0   AboutZ=0   AboutY=0   AboutX=0
 
TABLE:  "DATABASE DOCUMENTATION"
 
TABLE:  "DATABASE FORMAT TYPES"
   UnitsCurr=Yes   OverrideE=No
 
TABLE:  "FRAME AUTO MESH ASSIGNMENTS"
   Frame=782260   AutoMesh=Yes   AtJoints=Yes   AtFrames=No   NumSegments=0   MaxLength=0   MaxDegrees=0
   Frame=782261   AutoMesh=Yes   AtJoints=Yes   AtFrames=No   NumSegments=0   MaxLength=0   MaxDegrees=0
   Frame=782262   AutoMesh=Yes   AtJoints=Yes   AtFrames=No   NumSegments=0   MaxLength=0   MaxDegrees=0
   Frame=782263   AutoMesh=Yes   AtJoints=Yes   AtFrames=No   NumSegments=0   MaxLength=0   MaxDegrees=0
   Frame=782264   AutoMesh=Yes   AtJoints=Yes   AtFrames=No   NumSegments=0   MaxLength=0   MaxDegrees=0
   Frame=782265   AutoMesh=Yes   AtJoints=Yes   AtFrames=No   NumSegments=0   MaxLength=0   MaxDegrees=0
   Frame=782266   AutoMesh=Yes   AtJoints=Yes   AtFrames=No   NumSegments=0   MaxLength=0   MaxDegrees=0
   Frame=782267   AutoMesh=Yes   AtJoints=Yes   AtFrames=No   NumSegments=0   MaxLength=0   MaxDegrees=0
   Frame=782268   AutoMesh=Yes   AtJoints=Yes   AtFrames=No   NumSegments=0   MaxLength=0   MaxDegrees=0
   Frame=782269   AutoMesh=Yes   AtJoints=Yes   AtFrames=No   NumSegments=0   MaxLength=0   MaxDegrees=0
   Frame=782270   AutoMesh=Yes   AtJoints=Yes   AtFrames=No   NumSegments=0   MaxLength=0   MaxDegrees=0
   Frame=782271   AutoMesh=Yes   AtJoints=Yes   AtFrames=No   NumSegments=0   MaxLength=0   MaxDegrees=0
   Frame=782272   AutoMesh=Yes   AtJoints=Yes   AtFrames=No   NumSegments=0   MaxLength=0   MaxDegrees=0
   Frame=782273   AutoMesh=Yes   AtJoints=Yes   AtFrames=No   NumSegments=0   MaxLength=0   MaxDegrees=0
   Frame=782274   AutoMesh=Yes   AtJoints=Yes   AtFrames=No   NumSegments=0   MaxLength=0   MaxDegrees=0
   Frame=782275   AutoMesh=Yes   AtJoints=Yes   AtFrames=No   NumSegments=0   MaxLength=0   MaxDegrees=0
   Frame=782276   AutoMesh=Yes   AtJoints=Yes   AtFrames=No   NumSegments=0   MaxLength=0   MaxDegrees=0
   Frame=782277   AutoMesh=Yes   AtJoints=Yes   AtFrames=No   NumSegments=0   MaxLength=0   MaxDegrees=0
   Frame=782278   AutoMesh=Yes   AtJoints=Yes   AtFrames=No   NumSegments=0   MaxLength=0   MaxDegrees=0
   Frame=782279   AutoMesh=Yes   AtJoints=Yes   AtFrames=No   NumSegments=0   MaxLength=0   MaxDegrees=0
# ... 58 like lines cut
 
TABLE:  "FRAME DESIGN PROCEDURES"
   Frame=782260   DesignProc="From Material"
   Frame=782261   DesignProc="From Material"
   Frame=782262   DesignProc="From Material"
   Frame=782263   DesignProc="From Material"
   Frame=782264   DesignProc="From Material"
   Frame=782265   DesignProc="From Material"
   Frame=782266   DesignProc="From Material"
   Frame=782267   DesignProc="From Material"
   Frame=782268   DesignProc="From Material"
   Frame=782269   DesignProc="From Material"
   Frame=782270   DesignProc="From Material"
   Frame=782271   DesignProc="From Material"
   Frame=782272   DesignProc="From Material"
   Frame=782273   DesignProc="From Material"
   Frame=782274   DesignProc="From Material"
   Frame=782275   DesignProc="From Material"
   Frame=782276   DesignProc="From Material"
   Frame=782277   DesignProc="From Material"
   Frame=782278   DesignProc="From Material"
   Frame=782279   DesignProc="From Material"
# ... 18 like lines cut
   Frame=782298   DesignProc="No Design"
   Frame=782299   DesignProc="No Design"
   Frame=782300   DesignProc="From Material"
   Frame=782301   DesignProc="No Design"
   Frame=782302   DesignProc="No Design"
   Frame=782303   DesignProc="From Material"
   Frame=782304   DesignProc="No Design"
   Frame=782305   DesignProc="No Design"
   Frame=782306   DesignProc="From Material"
   Frame=782307   DesignProc="No Design"
   Frame=782308   DesignProc="No Design"
   Frame=782309   DesignProc="From Material"
   Frame=782310   DesignProc="No Design"
   Frame=782311   DesignProc="No Design"
   Frame=782312   DesignProc="From Material"
   Frame=782313   DesignProc="No Design"
   Frame=782314   DesignProc="No Design"
   Frame=782315   DesignProc="From Material"
   Frame=782316   DesignProc="No Design"
   Frame=782317   DesignProc="No Design"
   Frame=782318   DesignProc="No Design"
   Frame=782319   DesignProc="No Design"
   Frame=782320   DesignProc="No Design"
   Frame=782321   DesignProc="No Design"
   Frame=782322   DesignProc="No Design"
   Frame=782323   DesignProc="No Design"
   Frame=782324   DesignProc="No Design"
   Frame=782325   DesignProc="No Design"
   Frame=782326   DesignProc="No Design"
   Frame=782327   DesignProc="No Design"
   Frame=782328   DesignProc="No Design"
   Frame=782329   DesignProc="No Design"
   Frame=782330   DesignProc="No Design"
   Frame=782331   DesignProc="No Design"
   Frame=782332   DesignProc="From Material"
   Frame=782333   DesignProc="From Material"
   Frame=782334   DesignProc="From Material"
   Frame=782335   DesignProc="From Material"
   Frame=782336   DesignProc="From Material"
   Frame=782337   DesignProc="From Material"
 
TABLE:  "FRAME LOAD TRANSFER OPTIONS"
   Frame=782260   Transfer=Yes
   Frame=782261   Transfer=Yes
   Frame=782262   Transfer=Yes
   Frame=782263   Transfer=Yes
   Frame=782264   Transfer=Yes
   Frame=782265   Transfer=Yes
   Frame=782266   Transfer=Yes
   Frame=782267   Transfer=Yes
   Frame=782268   Transfer=Yes
   Frame=782269   Transfer=Yes
   Frame=782270   Transfer=Yes
   Frame=782271   Transfer=Yes
   Frame=782272   Transfer=Yes
   Frame=782273   Transfer=Yes
   Frame=782274   Transfer=Yes
   Frame=782275   Transfer=Yes
   Frame=782276   Transfer=Yes
   Frame=782277   Transfer=Yes
   Frame=782278   Transfer=Yes
   Frame=782279   Transfer=Yes
# ... 58 like lines cut
 
TABLE:  "FRAME LOCAL AXES ASSIGNMENTS 1 - TYPICAL"
   Frame=782297   Angle=90
   Frame=782300   Angle=90
   Frame=782303   Angle=90
   Frame=782306   Angle=90
   Frame=782309   Angle=90
   Frame=782312   Angle=90
   Frame=782315   Angle=90
 
TABLE:  "FRAME OUTPUT STATION ASSIGNMENTS"
   Frame=782260   StationType=MaxStaSpcg   MaxStaSpcg=0.5   AddAtElmInt=Yes   AddAtPtLoad=Yes
   Frame=782261   StationType=MaxStaSpcg   MaxStaSpcg=0.5   AddAtElmInt=Yes   AddAtPtLoad=Yes
   Frame=782262   StationType=MaxStaSpcg   MaxStaSpcg=0.5   AddAtElmInt=Yes   AddAtPtLoad=Yes
   Frame=782263   StationType=MaxStaSpcg   MaxStaSpcg=0.5   AddAtElmInt=Yes   AddAtPtLoad=Yes
   Frame=782264   StationType=MaxStaSpcg   MaxStaSpcg=0.5   AddAtElmInt=Yes   AddAtPtLoad=Yes
   Frame=782265   StationType=MaxStaSpcg   MaxStaSpcg=0.5   AddAtElmInt=Yes   AddAtPtLoad=Yes
   Frame=782266   StationType=MaxStaSpcg   MaxStaSpcg=0.5   AddAtElmInt=Yes   AddAtPtLoad=Yes
   Frame=782267   StationType=MaxStaSpcg   MaxStaSpcg=0.5   AddAtElmInt=Yes   AddAtPtLoad=Yes
   Frame=782268   StationType=MaxStaSpcg   MaxStaSpcg=0.5   AddAtElmInt=Yes   AddAtPtLoad=Yes
   Frame=782269   StationType=MaxStaSpcg   MaxStaSpcg=0.5   AddAtElmInt=Yes   AddAtPtLoad=Yes
   Frame=782270   StationType=MaxStaSpcg   MaxStaSpcg=0.5   AddAtElmInt=Yes   AddAtPtLoad=Yes
   Frame=782271   StationType=MaxStaSpcg   MaxStaSpcg=0.5   AddAtElmInt=Yes   AddAtPtLoad=Yes
   Frame=782272   StationType=MaxStaSpcg   MaxStaSpcg=0.5   AddAtElmInt=Yes   AddAtPtLoad=Yes
   Frame=782273   StationType=MaxStaSpcg   MaxStaSpcg=0.5   AddAtElmInt=Yes   AddAtPtLoad=Yes
   Frame=782274   StationType=MaxStaSpcg   MaxStaSpcg=0.5   AddAtElmInt=Yes   AddAtPtLoad=Yes
   Frame=782275   StationType=MaxStaSpcg   MaxStaSpcg=0.5   AddAtElmInt=Yes   AddAtPtLoad=Yes
   Frame=782276   StationType=MaxStaSpcg   MaxStaSpcg=0.5   AddAtElmInt=Yes   AddAtPtLoad=Yes
   Frame=782277   StationType=MaxStaSpcg   MaxStaSpcg=0.5   AddAtElmInt=Yes   AddAtPtLoad=Yes
   Frame=782278   StationType=MaxStaSpcg   MaxStaSpcg=0.5   AddAtElmInt=Yes   AddAtPtLoad=Yes
   Frame=782279   StationType=MaxStaSpcg   MaxStaSpcg=0.5   AddAtElmInt=Yes   AddAtPtLoad=Yes
# ... 17 like lines cut
   Frame=782297   StationType=MinNumSta   MinNumSta=3   AddAtElmInt=Yes   AddAtPtLoad=Yes
   Frame=782298   StationType=MinNumSta   MinNumSta=3   AddAtElmInt=Yes   AddAtPtLoad=Yes
   Frame=782299   StationType=MinNumSta   MinNumSta=3   AddAtElmInt=Yes   AddAtPtLoad=Yes
   Frame=782300   StationType=MinNumSta   MinNumSta=3   AddAtElmInt=Yes   AddAtPtLoad=Yes
   Frame=782301   StationType=MinNumSta   MinNumSta=3   AddAtElmInt=Yes   AddAtPtLoad=Yes
   Frame=782302   StationType=MinNumSta   MinNumSta=3   AddAtElmInt=Yes   AddAtPtLoad=Yes
   Frame=782303   StationType=MinNumSta   MinNumSta=3   AddAtElmInt=Yes   AddAtPtLoad=Yes
   Frame=782304   StationType=MinNumSta   MinNumSta=3   AddAtElmInt=Yes   AddAtPtLoad=Yes
   Frame=782305   StationType=MinNumSta   MinNumSta=3   AddAtElmInt=Yes   AddAtPtLoad=Yes
   Frame=782306   StationType=MinNumSta   MinNumSta=3   AddAtElmInt=Yes   AddAtPtLoad=Yes
   Frame=782307   StationType=MinNumSta   MinNumSta=3   AddAtElmInt=Yes   AddAtPtLoad=Yes
   Frame=782308   StationType=MinNumSta   MinNumSta=3   AddAtElmInt=Yes   AddAtPtLoad=Yes
   Frame=782309   StationType=MinNumSta   MinNumSta=3   AddAtElmInt=Yes   AddAtPtLoad=Yes
   Frame=782310   StationType=MinNumSta   MinNumSta=3   AddAtElmInt=Yes   AddAtPtLoad=Yes
   Frame=782311   StationType=MinNumSta   MinNumSta=3   AddAtElmInt=Yes   AddAtPtLoad=Yes
   Frame=782312   StationType=MinNumSta   MinNumSta=3   AddAtElmInt=Yes   AddAtPtLoad=Yes
   Frame=782313   StationType=MinNumSta   MinNumSta=3   AddAtElmInt=Yes   AddAtPtLoad=Yes
   Frame=782314   StationType=MinNumSta   MinNumSta=3   AddAtElmInt=Yes   AddAtPtLoad=Yes
   Frame=782315   StationType=MinNumSta   MinNumSta=3   AddAtElmInt=Yes   AddAtPtLoad=Yes
   Frame=782316   StationType=MinNumSta   MinNumSta=3   AddAtElmInt=Yes   AddAtPtLoad=Yes
# ... 15 like lines cut
   Frame=782332   StationType=MaxStaSpcg   MaxStaSpcg=0.5   AddAtElmInt=Yes   AddAtPtLoad=Yes
   Frame=782333   StationType=MaxStaSpcg   MaxStaSpcg=0.5   AddAtElmInt=Yes   AddAtPtLoad=Yes
   Frame=782334   StationType=MaxStaSpcg   MaxStaSpcg=0.5   AddAtElmInt=Yes   AddAtPtLoad=Yes
   Frame=782335   StationType=MaxStaSpcg   MaxStaSpcg=0.5   AddAtElmInt=Yes   AddAtPtLoad=Yes
   Frame=782336   StationType=MaxStaSpcg   MaxStaSpcg=0.5   AddAtElmInt=Yes   AddAtPtLoad=Yes
   Frame=782337   StationType=MaxStaSpcg   MaxStaSpcg=0.5   AddAtElmInt=Yes   AddAtPtLoad=Yes
 
TABLE:  "FRAME SECTION ASSIGNMENTS"
   Frame=782260   AutoSelect=N.A.   AnalSect=TB   MatProp=Default
   Frame=782261   AutoSelect=N.A.   AnalSect=TB   MatProp=Default
   Frame=782262   AutoSelect=N.A.   AnalSect=TB   MatProp=Default
   Frame=782263   AutoSelect=N.A.   AnalSect=TB   MatProp=Default
   Frame=782264   AutoSelect=N.A.   AnalSect=TB   MatProp=Default
   Frame=782265   AutoSelect=N.A.   AnalSect=TB   MatProp=Default
   Frame=782266   AutoSelect=N.A.   AnalSect=TB   MatProp=Default
   Frame=782267   AutoSelect=N.A.   AnalSect=TB   MatProp=Default
   Frame=782268   AutoSelect=N.A.   AnalSect=TB   MatProp=Default
   Frame=782269   AutoSelect=N.A.   AnalSect=TB   MatProp=Default
   Frame=782270   AutoSelect=N.A.   AnalSect=TB   MatProp=Default
   Frame=782271   AutoSelect=N.A.   AnalSect=TB   MatProp=Default
   Frame=782272   AutoSelect=N.A.   AnalSect=TB   MatProp=Default
   Frame=782273   AutoSelect=N.A.   AnalSect=TB   MatProp=Default
   Frame=782274   AutoSelect=N.A.   AnalSect=TB   MatProp=Default
   Frame=782275   AutoSelect=N.A.   AnalSect=TB   MatProp=Default
   Frame=782276   AutoSelect=N.A.   AnalSect=TB   MatProp=Default
   Frame=782277   AutoSelect=N.A.   AnalSect=TB   MatProp=Default
   Frame=782278   AutoSelect=N.A.   AnalSect=TB   MatProp=Default
   Frame=782279   AutoSelect=N.A.   AnalSect=TB   MatProp=Default
   Frame=782280   AutoSelect=N.A.   AnalSect=TB   MatProp=Default
   Frame=782281   AutoSelect=N.A.   AnalSect=LB   MatProp=Default
   Frame=782282   AutoSelect=N.A.   AnalSect=LB   MatProp=Default
   Frame=782283   AutoSelect=N.A.   AnalSect=LB   MatProp=Default
   Frame=782284   AutoSelect=N.A.   AnalSect=LB   MatProp=Default
   Frame=782285   AutoSelect=N.A.   AnalSect=LB   MatProp=Default
   Frame=782286   AutoSelect=N.A.   AnalSect=LB   MatProp=Default
   Frame=782287   AutoSelect=N.A.   AnalSect=LB   MatProp=Default
   Frame=782288   AutoSelect=N.A.   AnalSect=LB   MatProp=Default
   Frame=782289   AutoSelect=N.A.   AnalSect=LB   MatProp=Default
   Frame=782290   AutoSelect=N.A.   AnalSect=LB   MatProp=Default
   Frame=782291   AutoSelect=N.A.   AnalSect=LB   MatProp=Default
   Frame=782292   AutoSelect=N.A.   AnalSect=LB   MatProp=Default
   Frame=782293   AutoSelect=N.A.   AnalSect=LB   MatProp=Default
   Frame=782294   AutoSelect=N.A.   AnalSect=LB   MatProp=Default
   Frame=782295   AutoSelect=N.A.   AnalSect=LB   MatProp=Default
   Frame=782296   AutoSelect=N.A.   AnalSect=LB   MatProp=Default
   Frame=782297   AutoSelect=N.A.   AnalSect=EB   MatProp=Default
   Frame=782298   AutoSelect=N.A.   AnalSect=Piles   MatProp=Default
   Frame=782299   AutoSelect=N.A.   AnalSect=Piles   MatProp=Default
   Frame=782300   AutoSelect=N.A.   AnalSect=EB   MatProp=Default
   Frame=782301   AutoSelect=N.A.   AnalSect=Piles   MatProp=Default
   Frame=782302   AutoSelect=N.A.   AnalSect=Piles   MatProp=Default
   Frame=782303   AutoSelect=N.A.   AnalSect=EB   MatProp=Default
   Frame=782304   AutoSelect=N.A.   AnalSect=Piles   MatProp=Default
   Frame=782305   AutoSelect=N.A.   AnalSect=Piles   MatProp=Default
   Frame=782306   AutoSelect=N.A.   AnalSect=EB   MatProp=Default
   Frame=782307   AutoSelect=N.A.   AnalSect=Piles   MatProp=Default
   Frame=782308   AutoSelect=N.A.   AnalSect=Piles   MatProp=Default
   Frame=782309   AutoSelect=N.A.   AnalSect=EB   MatProp=Default
   Frame=782310   AutoSelect=N.A.   AnalSect=Piles   MatProp=Default
   Frame=782311   AutoSelect=N.A.   AnalSect=Piles   MatProp=Default
   Frame=782312   AutoSelect=N.A.   AnalSect=EB   MatProp=Default
   Frame=782313   AutoSelect=N.A.   AnalSect=Piles   MatProp=Default
   Frame=782314   AutoSelect=N.A.   AnalSect=Piles   MatProp=Default
   Frame=782315   AutoSelect=N.A.   AnalSect=EB   MatProp=Default
   Frame=782316   AutoSelect=N.A.   AnalSect=Piles   MatProp=Default
   Frame=782317   AutoSelect=N.A.   AnalSect=Piles   MatProp=Default
   Frame=782318   AutoSelect=N.A.   AnalSect=Piles   MatProp=Default
   Frame=782319   AutoSelect=N.A.   AnalSect=Piles   MatProp=Default
   Frame=782320   AutoSelect=N.A.   AnalSect=Piles   MatProp=Default
   Frame=782321   AutoSelect=N.A.   AnalSect=Piles   MatProp=Default
   Frame=782322   AutoSelect=N.A.   AnalSect=Piles   MatProp=Default
   Frame=782323   AutoSelect=N.A.   AnalSect=Piles   MatProp=Default
   Frame=782324   AutoSelect=N.A.   AnalSect=Piles   MatProp=Default
   Frame=782325   AutoSelect=N.A.   AnalSect=Piles   MatProp=Default
   Frame=782326   AutoSelect=N.A.   AnalSect=Piles   MatProp=Default
   Frame=782327   AutoSelect=N.A.   AnalSect=Piles   MatProp=Default
   Frame=782328   AutoSelect=N.A.   AnalSect=Piles   MatProp=Default
   Frame=782329   AutoSelect=N.A.   AnalSect=Piles   MatProp=Default
   Frame=782330   AutoSelect=N.A.   AnalSect=Piles   MatProp=Default
   Frame=782331   AutoSelect=N.A.   AnalSect=Piles   MatProp=Default
   Frame=782332   AutoSelect=N.A.   AnalSect=EB-1   MatProp=Default
   Frame=782333   AutoSelect=N.A.   AnalSect=EB-1   MatProp=Default
   Frame=782334   AutoSelect=N.A.   AnalSect=EB-1   MatProp=Default
   Frame=782335   AutoSelect=N.A.   AnalSect=EB-1   MatProp=Default
   Frame=782336   AutoSelect=N.A.   AnalSect=EB-1   MatProp=Default
   Frame=782337   AutoSelect=N.A.   AnalSect=EB-1   MatProp=Default
 
TABLE:  "FRAME SECTION PROPERTIES 01 - GENERAL"
   SectionName=EB   Material=BTCT   Shape=Rectangular   t3=1.2   t2=0.5   Area=0.6   TorsConst=0.0369079665195795   I33=0.072   I22=0.0125   I23=0   AS2=0.5   AS3=0.5   S33Top=0.12   S33Bot=0.12   S22Left=0.05   S22Right=0.05   Z33=0.18 _
        Z22=0.075   R33=0.346410161513775   R22=0.144337567297406   CGOffset3=0   CGOffset2=0   EccV2=0   EccV3=0   Cw=0   Color=Yellow   FromFile=No   AMod=1   A2Mod=1   A3Mod=1   JMod=1   I2Mod=1   I3Mod=1   MMod=1   WMod=1
   SectionName=EB-1   Material=BTCT   Shape=Rectangular   t3=0.5   t2=0.5   Area=0.25   TorsConst=0.00880208333333333   I33=0.00520833333333333   I22=0.00520833333333333   I23=0   AS2=0.208333333333333   AS3=0.208333333333333 _
        S33Top=0.0208333333333333   S33Bot=0.0208333333333333   S22Left=0.0208333333333333   S22Right=0.0208333333333333   Z33=0.03125   Z22=0.03125   R33=0.144337567297406   R22=0.144337567297406   CGOffset3=0   CGOffset2=0   EccV2=0 _
        EccV3=0   Cw=0   Color=Gray8Dark   FromFile=No   AMod=1   A2Mod=1   A3Mod=1   JMod=1   I2Mod=1   I3Mod=1   MMod=1   WMod=1
   SectionName=LB   Material=BTCT   Shape=Rectangular   t3=0.5   t2=0.5   Area=0.25   TorsConst=0.00880208333333333   I33=0.00520833333333333   I22=0.00520833333333333   I23=0   AS2=0.208333333333333   AS3=0.208333333333333 _
        S33Top=0.0208333333333333   S33Bot=0.0208333333333333   S22Left=0.0208333333333333   S22Right=0.0208333333333333   Z33=0.03125   Z22=0.03125   R33=0.144337567297406   R22=0.144337567297406   CGOffset3=0   CGOffset2=0   EccV2=0 _
        EccV3=0   Cw=0   Color=Magenta   FromFile=No   AMod=1   A2Mod=1   A3Mod=1   JMod=1   I2Mod=1   I3Mod=1   MMod=1   WMod=1
   SectionName=Piles   Material=BTCTCOC   Shape=Pipe   t3=0.3   tw=0.06   Area=0.045238934211693   TorsConst=0.000692155693438903   I33=0.000346077846719452   I22=0.000346077846719452   I23=0   AS2=0.0235427106611872 _
        AS3=0.0235427106611872   S33Top=0.00230718564479634   S33Bot=0.00230718564479634   S22Left=0.00230718564479634   S22Right=0.00230718564479634   Z33=0.003528   Z22=0.003528   R33=0.0874642784226795   R22=0.0874642784226795 _
        CGOffset3=0   CGOffset2=0   EccV2=0   EccV3=0   Cw=0   Color=Blue   FromFile=No   AMod=1   A2Mod=1   A3Mod=1   JMod=1   I2Mod=1   I3Mod=1   MMod=1   WMod=1
   SectionName=TB   Material=BTCT   Shape=Rectangular   t3=0.5   t2=0.5   Area=0.25   TorsConst=0.00880208333333333   I33=0.00520833333333333   I22=0.00520833333333333   I23=0   AS2=0.208333333333333   AS3=0.208333333333333 _
        S33Top=0.0208333333333333   S33Bot=0.0208333333333333   S22Left=0.0208333333333333   S22Right=0.0208333333333333   Z33=0.03125   Z22=0.03125   R33=0.144337567297406   R22=0.144337567297406   CGOffset3=0   CGOffset2=0   EccV2=0 _
        EccV3=0   Cw=0   Color=Red   FromFile=No   AMod=1   A2Mod=1   A3Mod=1   JMod=1   I2Mod=1   I3Mod=1   MMod=1   WMod=1
 
TABLE:  "FRAME SECTION PROPERTIES 02 - CONCRETE COLUMN"
   SectionName=EB   RebarMatL=A706   RebarMatC=A706   ReinfConfig=Rectangular   LatReinf=Ties   Cover=0.05   NumBars3Dir=2   NumBars2Dir=2   BarSizeL=12d   BarSizeC=10d   SpacingC=0.1   NumCBars2=2   NumCBars3=2   ReinfType=Design
   SectionName=EB-1   RebarMatL=A706   RebarMatC=A706   ReinfConfig=Rectangular   LatReinf=Ties   Cover=0.05   NumBars3Dir=2   NumBars2Dir=2   BarSizeL=12d   BarSizeC=10d   SpacingC=0.1   NumCBars2=2   NumCBars3=2   ReinfType=Design
   SectionName=LB   RebarMatL=A706   RebarMatC=A706   ReinfConfig=Rectangular   LatReinf=Ties   Cover=0.05   NumBars3Dir=2   NumBars2Dir=2   BarSizeL=12d   BarSizeC=10d   SpacingC=0.1   NumCBars2=2   NumCBars3=2   ReinfType=Design
   SectionName=TB   RebarMatL=A706   RebarMatC=A706   ReinfConfig=Rectangular   LatReinf=Ties   Cover=0.05   NumBars3Dir=2   NumBars2Dir=2   BarSizeL=12d   BarSizeC=10d   SpacingC=0.1   NumCBars2=2   NumCBars3=2   ReinfType=Design
 
TABLE:  "FRAME SECTION PROPERTIES 13 - TIME DEPENDENT"
   SectionName=EB   TypeSize=Auto   AutoSFSize=1
   SectionName=EB-1   TypeSize=Auto   AutoSFSize=1
   SectionName=LB   TypeSize=Auto   AutoSFSize=1
   SectionName=Piles   TypeSize=Auto   AutoSFSize=1
   SectionName=TB   TypeSize=Auto   AutoSFSize=1
 
TABLE:  "FUNCTION - PLOT FUNCTIONS"
   PlotFunc="Input Energy"   Type=Energy   Component=Input   Mode=All
 
TABLE:  "FUNCTION - POWER SPECTRAL DENSITY - USER"
   Name=UNIFPSD   Frequency=0   Value=1
   Name=UNIFPSD   Frequency=1   Value=1
 
TABLE:  "FUNCTION - RESPONSE SPECTRUM - USER"
   Name=UNIFRS   Period=0   Accel=1   FuncDamp=0.05
   Name=UNIFRS   Period=1   Accel=1
 
TABLE:  "FUNCTION - STEADY STATE - USER"
   Name=UNIFSS   Frequency=0   Value=1
   Name=UNIFSS   Frequency=1   Value=1
 
TABLE:  "FUNCTION - TIME HISTORY - USER"
   Name=RAMPTH   Time=0   Value=0
   Name=RAMPTH   Time=1   Value=1
   Name=RAMPTH   Time=4   Value=1
   Name=UNIFTH   Time=0   Value=1
   Name=UNIFTH   Time=1   Value=1
 
TABLE:  "GRID LINES"
   CoordSys=GLOBAL   AxisDir=X   GridID=A   XRYZCoord=-10   LineType=Primary   LineColor=Gray8Dark   Visible=Yes   BubbleLoc=End   AllVisible=Yes   BubbleSize=0.9375
   CoordSys=GLOBAL   AxisDir=X   GridID=B   XRYZCoord=-9   LineType=Primary   LineColor=Gray8Dark   Visible=Yes   BubbleLoc=End
   CoordSys=GLOBAL   AxisDir=X   GridID=C   XRYZCoord=-4.5   LineType=Primary   LineColor=Gray8Dark   Visible=Yes   BubbleLoc=End
   CoordSys=GLOBAL   AxisDir=X   GridID=D   XRYZCoord=0   LineType=Primary   LineColor=Gray8Dark   Visible=Yes   BubbleLoc=End
   CoordSys=GLOBAL   AxisDir=X   GridID=E   XRYZCoord=4.5   LineType=Primary   LineColor=Gray8Dark   Visible=Yes   BubbleLoc=End
   CoordSys=GLOBAL   AxisDir=X   GridID=F   XRYZCoord=9   LineType=Primary   LineColor=Gray8Dark   Visible=Yes   BubbleLoc=End
   CoordSys=GLOBAL   AxisDir=X   GridID=G   XRYZCoord=10   LineType=Primary   LineColor=Gray8Dark   Visible=Yes   BubbleLoc=End
   CoordSys=GLOBAL   AxisDir=Y   GridID=1   XRYZCoord=-5.2   LineType=Primary   LineColor=Gray8Dark   Visible=Yes   BubbleLoc=Start
   CoordSys=GLOBAL   AxisDir=Y   GridID=2   XRYZCoord=-4.2   LineType=Primary   LineColor=Gray8Dark   Visible=Yes   BubbleLoc=Start
   CoordSys=GLOBAL   AxisDir=Y   GridID=3   XRYZCoord=0   LineType=Primary   LineColor=Gray8Dark   Visible=Yes   BubbleLoc=Start
   CoordSys=GLOBAL   AxisDir=Y   GridID=4   XRYZCoord=4.2   LineType=Primary   LineColor=Gray8Dark   Visible=Yes   BubbleLoc=Start
   CoordSys=GLOBAL   AxisDir=Y   GridID=5   XRYZCoord=4.8   LineType=Primary   LineColor=Gray8Dark   Visible=Yes   BubbleLoc=Start
   CoordSys=GLOBAL   AxisDir=Z   GridID=Z1   XRYZCoord=0   LineType=Primary   LineColor=Gray8Dark   Visible=Yes   BubbleLoc=End
   CoordSys=GLOBAL   AxisDir=Z   GridID=Z2   XRYZCoord=13   LineType=Primary   LineColor=Gray8Dark   Visible=Yes   BubbleLoc=End
 
TABLE:  "GROUPS 1 - DEFINITIONS"
   GroupName=ALL   Selection=Yes   SectionCut=Yes   Steel=Yes   Concrete=Yes   Aluminum=Yes   ColdFormed=Yes   Stage=Yes   Bridge=Yes   AutoSeismic=No   AutoWind=No   SelDesSteel=No   SelDesAlum=No   SelDesCold=No   MassWeight=Yes   Color=Red
   GroupName=Pile   Selection=Yes   SectionCut=Yes   Steel=Yes   Concrete=Yes   Aluminum=Yes   ColdFormed=Yes   Stage=Yes   Bridge=Yes   AutoSeismic=No   AutoWind=No   SelDesSteel=No   SelDesAlum=No   SelDesCold=No   MassWeight=Yes   Color=Gray8Dark
   GroupName=DN   Selection=Yes   SectionCut=Yes   Steel=Yes   Concrete=Yes   Aluminum=Yes   ColdFormed=Yes   Stage=Yes   Bridge=Yes   AutoSeismic=No   AutoWind=No   SelDesSteel=No   SelDesAlum=No   SelDesCold=No   MassWeight=Yes   Color=Yellow
   GroupName=Pile_Toe   Selection=Yes   SectionCut=Yes   Steel=Yes   Concrete=Yes   Aluminum=Yes   ColdFormed=Yes   Stage=Yes   Bridge=Yes   AutoSeismic=No   AutoWind=No   SelDesSteel=No   SelDesAlum=No   SelDesCold=No   MassWeight=Yes   Color=Green
   GroupName=Pile_Bend   Selection=Yes   SectionCut=Yes   Steel=Yes   Concrete=Yes   Aluminum=Yes   ColdFormed=Yes   Stage=Yes   Bridge=Yes   AutoSeismic=No   AutoWind=No   SelDesSteel=No   SelDesAlum=No   SelDesCold=No   MassWeight=Yes   Color=Cyan
   GroupName=Beam   Selection=Yes   SectionCut=Yes   Steel=Yes   Concrete=Yes   Aluminum=Yes   ColdFormed=Yes   Stage=Yes   Bridge=Yes   AutoSeismic=No   AutoWind=No   SelDesSteel=No   SelDesAlum=No   SelDesCold=No   MassWeight=Yes   Color=Blue
   GroupName=Piles   Selection=Yes   SectionCut=Yes   Steel=Yes   Concrete=Yes   Aluminum=Yes   ColdFormed=Yes   Stage=Yes   Bridge=Yes   AutoSeismic=No   AutoWind=No   SelDesSteel=No   SelDesAlum=No   SelDesCold=No   MassWeight=Yes   Color=Red
   GroupName=Beams   Selection=Yes   SectionCut=Yes   Steel=Yes   Concrete=Yes   Aluminum=Yes   ColdFormed=Yes   Stage=Yes   Bridge=Yes   AutoSeismic=No   AutoWind=No   SelDesSteel=No   SelDesAlum=No   SelDesCold=No   MassWeight=Yes   Color=Magenta
 
TABLE:  "GROUPS 2 - ASSIGNMENTS"
 
TABLE:  "JOINT COORDINATES"
   Joint=697777   CoordSys=GLOBAL   CoordType=Cartesian   XorR=-9   Y=-5   Z=0   SpecialJt=No   GUID=b0d7471c-b5c1-4a5d-9c95-f0fef7de1708
   Joint=697778   CoordSys=GLOBAL   CoordType=Cartesian   XorR=-9   Y=-2.7   Z=0   SpecialJt=No   GUID=141d4259-0531-481f-a317-4671fcbd96f9
   Joint=697779   CoordSys=GLOBAL   CoordType=Cartesian   XorR=-6   Y=-5   Z=0   SpecialJt=No   GUID=b829ccee-92ed-4675-9057-d3bd10b0325c
   Joint=697780   CoordSys=GLOBAL   CoordType=Cartesian   XorR=-6   Y=-2.7   Z=0   SpecialJt=No   GUID=70bc8e2e-ae7e-41ef-84f5-01551184edd4
   Joint=697781   CoordSys=GLOBAL   CoordType=Cartesian   XorR=-3   Y=-5   Z=0   SpecialJt=No   GUID=71175dfa-a116-4c03-8bde-5947392081d3
   Joint=697782   CoordSys=GLOBAL   CoordType=Cartesian   XorR=-3   Y=-2.7   Z=0   SpecialJt=No   GUID=5ecddd10-20d4-4773-a3ba-ebb8156b3687
   Joint=697783   CoordSys=GLOBAL   CoordType=Cartesian   XorR=0   Y=-5   Z=0   SpecialJt=No   GUID=ef4aff79-bbdf-489c-bda7-11fde0e00428
   Joint=697784   CoordSys=GLOBAL   CoordType=Cartesian   XorR=0   Y=-2.7   Z=0   SpecialJt=No   GUID=f09bf9a7-21df-4803-bfc8-5540917255bc
   Joint=697785   CoordSys=GLOBAL   CoordType=Cartesian   XorR=3   Y=-5   Z=0   SpecialJt=No   GUID=780b2b0e-288b-4379-8323-948ab82b110d
   Joint=697786   CoordSys=GLOBAL   CoordType=Cartesian   XorR=3   Y=-2.7   Z=0   SpecialJt=No   GUID=c332b0fb-4e47-4a7d-a65c-484b9938eedc
   Joint=697787   CoordSys=GLOBAL   CoordType=Cartesian   XorR=6   Y=-5   Z=0   SpecialJt=No   GUID=bdf97d2f-1bd9-4c28-abe5-4773956cf344
   Joint=697788   CoordSys=GLOBAL   CoordType=Cartesian   XorR=6   Y=-2.7   Z=0   SpecialJt=No   GUID=ba964a03-6fd8-4cac-a0d2-fdfa48c22116
   Joint=697789   CoordSys=GLOBAL   CoordType=Cartesian   XorR=9   Y=-5   Z=0   SpecialJt=No   GUID=d755a9b9-b41a-425c-9771-1baedd7ca720
   Joint=697790   CoordSys=GLOBAL   CoordType=Cartesian   XorR=9   Y=-2.7   Z=0   SpecialJt=No   GUID=62358e1c-a511-4f45-8e99-307c15d9c8f5
   Joint=697791   CoordSys=GLOBAL   CoordType=Cartesian   XorR=-9   Y=2.7   Z=0   SpecialJt=No   GUID=4be91070-d19f-4487-9312-b8600cf47d41
   Joint=697792   CoordSys=GLOBAL   CoordType=Cartesian   XorR=-6   Y=2.7   Z=0   SpecialJt=No   GUID=8fd53206-b2ca-43e5-9324-f97625aa5478
   Joint=697793   CoordSys=GLOBAL   CoordType=Cartesian   XorR=-3   Y=2.7   Z=0   SpecialJt=No   GUID=bc75fc0a-d11a-48c9-a15b-8ae9f12a7cc8
   Joint=697794   CoordSys=GLOBAL   CoordType=Cartesian   XorR=0   Y=2.7   Z=0   SpecialJt=No   GUID=52b7086d-54df-43f7-8f11-968e2f0cfa8a
   Joint=697795   CoordSys=GLOBAL   CoordType=Cartesian   XorR=3   Y=2.7   Z=0   SpecialJt=No   GUID=5ef35cc0-a23a-4180-8b39-5f0ef7f514f4
   Joint=697796   CoordSys=GLOBAL   CoordType=Cartesian   XorR=6   Y=2.7   Z=0   SpecialJt=No   GUID=a6e85d77-bcdc-4350-9ae6-cdabd7bb36db
   Joint=697797   CoordSys=GLOBAL   CoordType=Cartesian   XorR=9   Y=2.7   Z=0   SpecialJt=No   GUID=89ba7792-4df0-413a-ae55-1331f0645453
   Joint=697798   CoordSys=GLOBAL   CoordType=Cartesian   XorR=-9   Y=5   Z=0   SpecialJt=No   GUID=44bb1c16-21a0-4d57-ad51-9dc7e66db67a
   Joint=697799   CoordSys=GLOBAL   CoordType=Cartesian   XorR=-6   Y=5   Z=0   SpecialJt=No   GUID=21fe2102-93c8-48d5-8a00-9b7c199c091d
   Joint=697800   CoordSys=GLOBAL   CoordType=Cartesian   XorR=-3   Y=5   Z=0   SpecialJt=No   GUID=8ff485ac-fdcb-46d3-a0b9-02c9ce1b70dd
   Joint=697801   CoordSys=GLOBAL   CoordType=Cartesian   XorR=0   Y=5   Z=0   SpecialJt=No   GUID=4032d8f9-3b25-4248-b640-352488fee520
   Joint=697802   CoordSys=GLOBAL   CoordType=Cartesian   XorR=3   Y=5   Z=0   SpecialJt=No   GUID=6c7e4a91-febc-4192-b15c-7d5117b07687
   Joint=697803   CoordSys=GLOBAL   CoordType=Cartesian   XorR=6   Y=5   Z=0   SpecialJt=No   GUID=98965992-2c1f-4a1a-b1cf-24773a732b36
   Joint=697804   CoordSys=GLOBAL   CoordType=Cartesian   XorR=9   Y=5   Z=0   SpecialJt=No   GUID=31563c25-7c42-4391-a0b5-99ec739c95af
   Joint=697805   CoordSys=GLOBAL   CoordType=Cartesian   XorR=-10   Y=-2.7   Z=0   SpecialJt=No   GUID=b7b192fc-0005-4682-a3ba-d40db5929f5f
   Joint=697806   CoordSys=GLOBAL   CoordType=Cartesian   XorR=-10   Y=2.7   Z=0   SpecialJt=No   GUID=98d80872-5c82-4c77-8152-9733f18d8997
   Joint=697807   CoordSys=GLOBAL   CoordType=Cartesian   XorR=10   Y=-2.7   Z=0   SpecialJt=No   GUID=6902e568-8ae2-476e-91ce-50bce32452f9
   Joint=697808   CoordSys=GLOBAL   CoordType=Cartesian   XorR=10   Y=2.7   Z=0   SpecialJt=No   GUID=670808ca-5b4f-42c5-9ad1-04c500602f65
   Joint=697809   CoordSys=GLOBAL   CoordType=Cartesian   XorR=-9   Y=-2.7   Z=-3   SpecialJt=No   GUID=19049c37-52b2-43ba-854e-709d0ffbe821
   Joint=697810   CoordSys=GLOBAL   CoordType=Cartesian   XorR=-9   Y=-2.7   Z=-13.4180229476075   SpecialJt=No   GUID=acf55281-2cc8-4833-82bb-ba46669f9aee
   Joint=697811   CoordSys=GLOBAL   CoordType=Cartesian   XorR=-9   Y=-2.7   Z=-39   SpecialJt=No   GUID=0ad45155-cbed-40ec-b305-d087245d3aca
   Joint=697812   CoordSys=GLOBAL   CoordType=Cartesian   XorR=-6   Y=-2.7   Z=-3   SpecialJt=No   GUID=ac280336-7e98-450e-bfeb-fcd2f743640e
   Joint=697813   CoordSys=GLOBAL   CoordType=Cartesian   XorR=-6   Y=-2.7   Z=-13.4180229476075   SpecialJt=No   GUID=fa77a48a-69b7-48d7-91e7-0507d700ea1d
   Joint=697814   CoordSys=GLOBAL   CoordType=Cartesian   XorR=-6   Y=-2.7   Z=-39   SpecialJt=No   GUID=54e3db9f-c04d-455e-8906-9d8c6a22c4e4
   Joint=697815   CoordSys=GLOBAL   CoordType=Cartesian   XorR=-3   Y=-2.7   Z=-3   SpecialJt=No   GUID=6587ad9e-d27c-4fa0-a7e9-1987e7034f65
   Joint=697816   CoordSys=GLOBAL   CoordType=Cartesian   XorR=-3   Y=-2.7   Z=-13.4180229476075   SpecialJt=No   GUID=736c4d2c-6002-400e-af8a-8dd12519338c
   Joint=697817   CoordSys=GLOBAL   CoordType=Cartesian   XorR=-3   Y=-2.7   Z=-39   SpecialJt=No   GUID=1553260f-8149-4c92-b6d7-e03afe45de42
   Joint=697818   CoordSys=GLOBAL   CoordType=Cartesian   XorR=0   Y=-2.7   Z=-3   SpecialJt=No   GUID=de03490a-9b63-4435-8a19-6b7e97176684
   Joint=697819   CoordSys=GLOBAL   CoordType=Cartesian   XorR=0   Y=-2.7   Z=-13.4180229476075   SpecialJt=No   GUID=22b6ec8f-4bc1-4cc8-af24-d4053a68196b
   Joint=697820   CoordSys=GLOBAL   CoordType=Cartesian   XorR=0   Y=-2.7   Z=-39   SpecialJt=No   GUID=0ef43993-81a0-4350-8807-66aa5af298b7
   Joint=697821   CoordSys=GLOBAL   CoordType=Cartesian   XorR=3   Y=-2.7   Z=-3   SpecialJt=No   GUID=a34585d6-bb5b-4f80-aba6-e619e82765a4
   Joint=697822   CoordSys=GLOBAL   CoordType=Cartesian   XorR=3   Y=-2.7   Z=-13.4180229476075   SpecialJt=No   GUID=4cbc644b-67c5-4cf8-8ca0-e925dddb67e9
   Joint=697823   CoordSys=GLOBAL   CoordType=Cartesian   XorR=3   Y=-2.7   Z=-39   SpecialJt=No   GUID=af29ed11-1c48-436c-b76e-1a27e158cdb5
   Joint=697824   CoordSys=GLOBAL   CoordType=Cartesian   XorR=6   Y=-2.7   Z=-3   SpecialJt=No   GUID=f7f926bc-7e6c-442f-adb5-4e196e9cbc3a
   Joint=697825   CoordSys=GLOBAL   CoordType=Cartesian   XorR=6   Y=-2.7   Z=-13.4180229476075   SpecialJt=No   GUID=39ff25ad-5753-4a5f-acb0-32601792d091
   Joint=697826   CoordSys=GLOBAL   CoordType=Cartesian   XorR=6   Y=-2.7   Z=-39   SpecialJt=No   GUID=c7a1f9b3-4899-4631-b001-84a24643ccb0
   Joint=697827   CoordSys=GLOBAL   CoordType=Cartesian   XorR=9   Y=-2.7   Z=-3   SpecialJt=No   GUID=9a386367-154b-44bc-b33a-4f61f4f0c81a
   Joint=697828   CoordSys=GLOBAL   CoordType=Cartesian   XorR=9   Y=-2.7   Z=-13.4180229476075   SpecialJt=No   GUID=6bb50485-c3bf-4492-92b3-01ce184af29a
   Joint=697829   CoordSys=GLOBAL   CoordType=Cartesian   XorR=9   Y=-2.7   Z=-39   SpecialJt=No   GUID=ce04b4c4-5eea-41f1-ae97-76cc1cfe475d
   Joint=697830   CoordSys=GLOBAL   CoordType=Cartesian   XorR=-9   Y=2.7   Z=-13.4180229476075   SpecialJt=No   GUID=1a21ce05-a4cf-437c-a4b8-4978fb75f0bd
   Joint=697831   CoordSys=GLOBAL   CoordType=Cartesian   XorR=-9   Y=2.7   Z=-39   SpecialJt=No   GUID=89bf8fad-853b-4750-8262-f0be310adc95
   Joint=697832   CoordSys=GLOBAL   CoordType=Cartesian   XorR=-6   Y=2.7   Z=-13.4180229476075   SpecialJt=No   GUID=0dfce4f6-3781-45b5-a6b2-2be9061f33b8
   Joint=697833   CoordSys=GLOBAL   CoordType=Cartesian   XorR=-6   Y=2.7   Z=-39   SpecialJt=No   GUID=af8aaf86-a1f5-4124-b5ef-0742b20c4980
   Joint=697834   CoordSys=GLOBAL   CoordType=Cartesian   XorR=-3   Y=2.7   Z=-13.4180229476075   SpecialJt=No   GUID=62a1b68e-bf2b-40cd-900d-3c17eade977d
   Joint=697835   CoordSys=GLOBAL   CoordType=Cartesian   XorR=-3   Y=2.7   Z=-39   SpecialJt=No   GUID=2ff74613-d890-44fb-b94f-b9429fa41866
   Joint=697836   CoordSys=GLOBAL   CoordType=Cartesian   XorR=0   Y=2.7   Z=-13.4180229476075   SpecialJt=No   GUID=30da99c1-556a-4f30-a10f-de4bb8368981
   Joint=697837   CoordSys=GLOBAL   CoordType=Cartesian   XorR=0   Y=2.7   Z=-39   SpecialJt=No   GUID=b51ea1bd-0385-4f03-b0bd-89b09852bb0f
   Joint=697838   CoordSys=GLOBAL   CoordType=Cartesian   XorR=3   Y=2.7   Z=-13.4180229476075   SpecialJt=No   GUID=68e17519-e035-40d3-84ff-fafda0803b09
   Joint=697839   CoordSys=GLOBAL   CoordType=Cartesian   XorR=3   Y=2.7   Z=-39   SpecialJt=No   GUID=97cde102-171b-4e76-88ec-b4b0b2b61cf5
   Joint=697840   CoordSys=GLOBAL   CoordType=Cartesian   XorR=6   Y=2.7   Z=-13.4180229476075   SpecialJt=No   GUID=f6e8bf82-1bb9-4119-8063-797aac3be597
   Joint=697841   CoordSys=GLOBAL   CoordType=Cartesian   XorR=6   Y=2.7   Z=-39   SpecialJt=No   GUID=ac9e9650-de64-401e-9110-635e666b5799
   Joint=697842   CoordSys=GLOBAL   CoordType=Cartesian   XorR=9   Y=2.7   Z=-13.4180229476075   SpecialJt=No   GUID=6ddc9dbe-42bb-40a8-810c-2cbe8ff195ac
   Joint=697843   CoordSys=GLOBAL   CoordType=Cartesian   XorR=9   Y=2.7   Z=-39   SpecialJt=No   GUID=ed423e5d-b667-462c-83dc-c34bfdf3b1c1
   Joint=697844   CoordSys=GLOBAL   CoordType=Cartesian   XorR=-10   Y=-5   Z=0   SpecialJt=No   GUID=3632f024-d375-4d37-a6d5-8a67e1717a08
   Joint=697845   CoordSys=GLOBAL   CoordType=Cartesian   XorR=10   Y=-5   Z=0   SpecialJt=No   GUID=ac0c63b7-3117-4a95-ba3b-c7dd943b1e80
   Joint=697846   CoordSys=GLOBAL   CoordType=Cartesian   XorR=-10   Y=5   Z=0   SpecialJt=No   GUID=dcfdfa54-b9ab-4f99-be49-5c6f06d5e705
   Joint=697847   CoordSys=GLOBAL   CoordType=Cartesian   XorR=10   Y=5   Z=0   SpecialJt=No   GUID=be74ee85-9109-40b4-8fb5-c30abeb4083c
 
TABLE:  "JOINT PATTERN DEFINITIONS"
   Pattern=Default
 
TABLE:  "JOINT RESTRAINT ASSIGNMENTS"
   Joint=697810   U1=Yes   U2=Yes   U3=No   R1=Yes   R2=Yes   R3=Yes
   Joint=697811   U1=No   U2=No   U3=Yes   R1=No   R2=No   R3=No
   Joint=697813   U1=Yes   U2=Yes   U3=No   R1=Yes   R2=Yes   R3=Yes
   Joint=697814   U1=No   U2=No   U3=Yes   R1=No   R2=No   R3=No
   Joint=697816   U1=Yes   U2=Yes   U3=No   R1=Yes   R2=Yes   R3=Yes
   Joint=697817   U1=No   U2=No   U3=Yes   R1=No   R2=No   R3=No
   Joint=697819   U1=Yes   U2=Yes   U3=No   R1=Yes   R2=Yes   R3=Yes
   Joint=697820   U1=No   U2=No   U3=Yes   R1=No   R2=No   R3=No
   Joint=697822   U1=Yes   U2=Yes   U3=No   R1=Yes   R2=Yes   R3=Yes
   Joint=697823   U1=No   U2=No   U3=Yes   R1=No   R2=No   R3=No
   Joint=697825   U1=Yes   U2=Yes   U3=No   R1=Yes   R2=Yes   R3=Yes
   Joint=697826   U1=No   U2=No   U3=Yes   R1=No   R2=No   R3=No
   Joint=697828   U1=Yes   U2=Yes   U3=No   R1=Yes   R2=Yes   R3=Yes
   Joint=697829   U1=No   U2=No   U3=Yes   R1=No   R2=No   R3=No
   Joint=697830   U1=Yes   U2=Yes   U3=No   R1=Yes   R2=Yes   R3=Yes
   Joint=697831   U1=No   U2=No   U3=Yes   R1=No   R2=No   R3=No
   Joint=697832   U1=Yes   U2=Yes   U3=No   R1=Yes   R2=Yes   R3=Yes
   Joint=697833   U1=No   U2=No   U3=Yes   R1=No   R2=No   R3=No
   Joint=697834   U1=Yes   U2=Yes   U3=No   R1=Yes   R2=Yes   R3=Yes
   Joint=697835   U1=No   U2=No   U3=Yes   R1=No   R2=No   R3=No
   Joint=697836   U1=Yes   U2=Yes   U3=No   R1=Yes   R2=Yes   R3=Yes
   Joint=697837   U1=No   U2=No   U3=Yes   R1=No   R2=No   R3=No
   Joint=697838   U1=Yes   U2=Yes   U3=No   R1=Yes   R2=Yes   R3=Yes
   Joint=697839   U1=No   U2=No   U3=Yes   R1=No   R2=No   R3=No
   Joint=697840   U1=Yes   U2=Yes   U3=No   R1=Yes   R2=Yes   R3=Yes
   Joint=697841   U1=No   U2=No   U3=Yes   R1=No   R2=No   R3=No
   Joint=697842   U1=Yes   U2=Yes   U3=No   R1=Yes   R2=Yes   R3=Yes
   Joint=697843   U1=No   U2=No   U3=Yes   R1=No   R2=No   R3=No
 
TABLE:  "LOAD CASE DEFINITIONS"
   Case=DEAD   Type=LinStatic   InitialCond=Zero   DesTypeOpt="Prog Det"   DesignType=Dead   DesActOpt="Prog Det"   DesignAct=Non-Composite   AutoType=None   RunCase=Yes
   Case=MODAL   Type=LinModal   InitialCond=Zero   DesTypeOpt="Prog Det"   DesignType=Other   DesActOpt="Prog Det"   DesignAct=Other   AutoType=None   RunCase=Yes
   Case=LL   Type=LinStatic   InitialCond=Zero   DesTypeOpt="Prog Det"   DesignType=Live   DesActOpt="Prog Det"   DesignAct="Short-Term Composite"   AutoType=None   RunCase=Yes
 
TABLE:  "LOAD PATTERN DEFINITIONS"
   LoadPat=DEAD   DesignType=Dead   SelfWtMult=1
   LoadPat=LL   DesignType=Live   SelfWtMult=0
 
TABLE:  "MASS SOURCE"
   MassSource=MSSSRC1   Elements=Yes   Masses=Yes   Loads=No   IsDefault=Yes
 
TABLE:  "MATERIAL PROPERTIES 01 - GENERAL"
   Material=A706   Type=Rebar   SymType=Uniaxial   TempDepend=No   Color=Gray8Dark   GUID=30185aab-1311-4f4b-9ffe-ddad707d22d9   Notes="ASTM A706 added 8/23/2025 4:27:57 PM"
   Material=BTCT   Type=Concrete   SymType=Isotropic   TempDepend=No   Color=Blue   Notes="Concrete added 24-Feb-23 16:30:01"
   Material=BTCTCOC   Type=Concrete   SymType=Isotropic   TempDepend=No   Color=Blue   Notes="Concrete added 24-Feb-23 16:30:01"
   Material=Steel   Type=Steel   SymType=Isotropic   TempDepend=No   Color=Magenta   GUID=2f952889-4898-4964-97a4-5fb5c5008d33   Notes="Steel added 8/24/2025 2:51:43 PM"
   Material=Tendon   Type=Tendon   SymType=Uniaxial   TempDepend=No   Color=Yellow   GUID=7dfcd093-823e-4b3a-b96f-35d5bcaf456f   Notes="Tendon added 8/24/2025 2:51:43 PM"
 
TABLE:  "MATERIAL PROPERTIES 02 - BASIC MECHANICAL PROPERTIES"
   Material=A706   UnitWeight=7.84904757236607   UnitMass=0.800380070686609   E1=20389019.1580383   A1=1.16999994421006E-05
   Material=BTCT   UnitWeight=2.40276966501002   UnitMass=0.245014307353044   E1=2900000   G12=1208333.33333333   U12=0.2   A1=9.9E-06
   Material=BTCTCOC   UnitWeight=2.40276966501002   UnitMass=0.245014307353044   E1=3800000000   G12=1583333333.33333   U12=0.2   A1=9.9E-06
   Material=Steel   UnitWeight=7.84904757236607   UnitMass=0.800380070686609   E1=20389019.1580383   G12=7841930.44539935   U12=0.3   A1=1.17E-05
   Material=Tendon   UnitWeight=7.84904757236607   UnitMass=0.800380070686609   E1=20037484.3449687   A1=1.16999994421006E-05
 
TABLE:  "MATERIAL PROPERTIES 03A - STEEL DATA"
   Material=Steel   Fy=35153.4813069626   Fu=45699.5256990514   EffFy=38668.8294376589   EffFu=50269.4782689565   SSCurveOpt=Simple   SSHysType=Kinematic   SHard=0.015   SMax=0.11   SRup=0.17   FinalSlope=-0.1   CoupModType="Von Mises"
 
TABLE:  "MATERIAL PROPERTIES 03B - CONCRETE DATA"
   Material=BTCT   Fc=2812.27850455701   eFc=2812.27850455701   LtWtConc=No   SSCurveOpt=Mander   SSHysType=Takeda   SFc=0.002   SCap=0.005   FinalSlope=-0.1   FAngle=0   DAngle=0   CoupModType="Modified Darwin-Pecknold"
   Material=BTCTCOC   Fc=2812.27850455701   eFc=2812.27850455701   LtWtConc=No   SSCurveOpt=Mander   SSHysType=Takeda   SFc=0.002   SCap=0.005   FinalSlope=-0.1   FAngle=0   DAngle=0   CoupModType="Modified Darwin-Pecknold"
 
TABLE:  "MATERIAL PROPERTIES 03E - REBAR DATA"
   Material=A706   Fy=42184.1775683551   Fu=56245.5700911402   EffFy=46402.5953251907   EffFu=61870.1271002542   SSCurveOpt=Simple   SSHysType=Kinematic   SHard=0.011   SCap=0.11   FinalSlope=-0.1   UseCTDef=No   CoupModType="Von Mises"
 
TABLE:  "MATERIAL PROPERTIES 03F - TENDON DATA"
   Material=Tendon   Fy=172322.365366731   Fu=189828.799057598   SSCurveOpt="270 ksi"   SSHysType=Kinematic   FinalSlope=-0.1   CoupModType="Von Mises"
 
TABLE:  "MATERIAL PROPERTIES 03J - COUPLED NONLINEAR VON MISES DATA"
   Material=A706   YieldStress=46402.5953251907   LinIsoHard=No   LinKinHard=No   NLIsoSaHard=No
   Material=Steel   YieldStress=38668.8294376589   LinIsoHard=No   LinKinHard=No   NLIsoSaHard=No
   Material=Tendon   YieldStress=172322.365366731   LinIsoHard=No   LinKinHard=No   NLIsoSaHard=No
 
TABLE:  "MATERIAL PROPERTIES 06 - DAMPING PARAMETERS"
   Material=A706   ModalRatio=0   VisMass=0   VisStiff=0   HysMass=0   HysStiff=0
   Material=BTCT   ModalRatio=0   VisMass=0   VisStiff=0   HysMass=0   HysStiff=0
   Material=BTCTCOC   ModalRatio=0   VisMass=0   VisStiff=0   HysMass=0   HysStiff=0
   Material=Steel   ModalRatio=0   VisMass=0   VisStiff=0   HysMass=0   HysStiff=0
   Material=Tendon   ModalRatio=0   VisMass=0   VisStiff=0   HysMass=0   HysStiff=0
 
TABLE:  "MATERIAL PROPERTIES 09 - ACCEPTANCE CRITERIA"
   Material=A706   IOTens=0.01   LSTens=0.02   CPTens=0.05   IOComp=-0.005   LSComp=-0.01   CPComp=-0.02
   Material=BTCT   IOTens=0.01   LSTens=0.02   CPTens=0.05   IOComp=-0.003   LSComp=-0.006   CPComp=-0.015   IgnoreTens=Yes
   Material=BTCTCOC   IOTens=0.01   LSTens=0.02   CPTens=0.05   IOComp=-0.003   LSComp=-0.006   CPComp=-0.015   IgnoreTens=Yes
   Material=Steel   IOTens=0.01   LSTens=0.02   CPTens=0.05   IOComp=-0.005   LSComp=-0.01   CPComp=-0.02
   Material=Tendon   IOTens=0.015   LSTens=0.023   CPTens=0.03   IOComp=-0.015   LSComp=-0.023   CPComp=-0.03
 
TABLE:  "OPTIONS - COLORS - DISPLAY"
   DeviceType=Screen   Points=Blue   LinesFrame=Blue   LinesFrmDL=Blue   LinesCable=Green   LinesTendon=Green   SpringLinks=Green   Restraints=Green   Releases=Green   Axes=Cyan   Text=Black   ShadowLines=Gray8Dark   GuideLines=Gray8Dark _
        Highlight=Red   Selection=10504778   AreaFillBot=Red   AreaFillTop=16744703   AreaFillSd=Red   AreaEdge=DarkRed   SolidF1=Red   SolidF2=Blue   SolidF3=Green   SolidF4=Yellow   SolidF5=White   SolidF6=Cyan   SolidEdge=DarkRed _
        Floor=Gray4   Background=White   BGLowLeft=White   BGLowRight=White   BGUpRight=White   Darkness=0.5
   DeviceType=Printer   Points=Gray8Dark   LinesFrame=Black   LinesFrmDL=Gray4   LinesCable=Black   LinesTendon=Black   SpringLinks=Gray8Dark   Restraints=Gray8Dark   Releases=Gray4   Axes=Black   Text=Black   ShadowLines=Gray4 _
        GuideLines=Gray4   Highlight=Black   Selection=Black   AreaFillBot=Gray4   AreaFillTop=Gray8Dark   AreaFillSd=Gray4   AreaEdge=Black   SolidF1=Gray1Light   SolidF2=Gray2   SolidF3=Gray3   SolidF4=Gray4   SolidF5=Gray5 _
        SolidF6=Gray6   SolidEdge=Black   Floor=Gray4   Background=White   BGLowLeft=White   BGLowRight=White   BGUpRight=White   Darkness=0.5
   DeviceType="Color Printer"   Points=Blue   LinesFrame=Blue   LinesFrmDL=Blue   LinesCable=Green   LinesTendon=Green   SpringLinks=Green   Restraints=Green   Releases=Green   Axes=Cyan   Text=Black   ShadowLines=Gray8Dark _
        GuideLines=Gray8Dark   Highlight=Red   Selection=10504778   AreaFillBot=Red   AreaFillTop=16744703   AreaFillSd=Red   AreaEdge=DarkRed   SolidF1=Red   SolidF2=Blue   SolidF3=Green   SolidF4=Yellow   SolidF5=White   SolidF6=Cyan _
        SolidEdge=DarkRed   Floor=Gray4   Background=White   BGLowLeft=White   BGLowRight=White   BGUpRight=White   Darkness=0.5
 
TABLE:  "OPTIONS - COLORS - OUTPUT"
   DeviceType=Screen   Contour1=13107400   Contour2=6553828   Contour3=Red   Contour4=16639   Contour5=Orange   Contour6=43775   Contour7=54527   Contour8=Yellow   Contour9=65408   Contour10=Green   Contour11=8453888   Contour12=Cyan _
        Contour13=16755200   Contour14=16733440   Contour15=Blue   Transpare=0.5   Ratio1=Cyan   Ratio2=Green   Ratio3=Yellow   Ratio4=Orange   Ratio5=Red   RatioNotD=Gray4   RatioNotC=Red   RatioVal1=0.5   RatioVal2=0.7   RatioVal3=0.9 _
        RatioVal4=1   DFillPos=Blue   DFillNeg=Red   DFillRPos=Green   DFillRNeg=Green
   DeviceType=Printer   Contour1=Black   Contour2=3158064   Contour3=4210752   Contour4=5263440   Contour5=6316128   Contour6=7368816   Contour7=Gray8Dark   Contour8=Gray7   Contour9=Gray6   Contour10=Gray5   Contour11=Gray4 _
        Contour12=Gray3   Contour13=Gray2   Contour14=Gray1Light   Contour15=White   Transpare=0   Ratio1=Gray2   Ratio2=Gray4   Ratio3=Gray8Dark   Ratio4=4210752   Ratio5=Black   RatioNotD=Gray4   RatioNotC=Black   RatioVal1=0.5 _
        RatioVal2=0.7   RatioVal3=0.9   RatioVal4=1   DFillPos=Gray8Dark   DFillNeg=Gray8Dark   DFillRPos=4210752   DFillRNeg=4210752
   DeviceType="Color Printer"   Contour1=13107400   Contour2=6553828   Contour3=Red   Contour4=16639   Contour5=Orange   Contour6=43775   Contour7=54527   Contour8=Yellow   Contour9=65408   Contour10=Green   Contour11=8453888 _
        Contour12=Cyan   Contour13=16755200   Contour14=16733440   Contour15=Blue   Transpare=0   Ratio1=Cyan   Ratio2=Green   Ratio3=Yellow   Ratio4=Orange   Ratio5=Red   RatioNotD=Gray4   RatioNotC=Red   RatioVal1=0.5   RatioVal2=0.7 _
        RatioVal3=0.9   RatioVal4=1   DFillPos=Blue   DFillNeg=Red   DFillRPos=Green   DFillRNeg=Green
 
TABLE:  "OVERWRITES - CONCRETE DESIGN - CSA-A233-14"
   Frame=782260   DesignSect="Program Determined"   FrameType="Program Determined"   RLLF=0   XLMajor=0   XLMinor=0   XKMajor=0   XKMinor=0   CmMajor=0   CmMinor=0   DbMajor=0   DbMinor=0   DsMajor=0   DsMinor=0   Rd=0   Ro=0   MaxAggSize=0
   Frame=782261   DesignSect="Program Determined"   FrameType="Program Determined"   RLLF=0   XLMajor=0   XLMinor=0   XKMajor=0   XKMinor=0   CmMajor=0   CmMinor=0   DbMajor=0   DbMinor=0   DsMajor=0   DsMinor=0   Rd=0   Ro=0   MaxAggSize=0
   Frame=782262   DesignSect="Program Determined"   FrameType="Program Determined"   RLLF=0   XLMajor=0   XLMinor=0   XKMajor=0   XKMinor=0   CmMajor=0   CmMinor=0   DbMajor=0   DbMinor=0   DsMajor=0   DsMinor=0   Rd=0   Ro=0   MaxAggSize=0
   Frame=782263   DesignSect="Program Determined"   FrameType="Program Determined"   RLLF=0   XLMajor=0   XLMinor=0   XKMajor=0   XKMinor=0   CmMajor=0   CmMinor=0   DbMajor=0   DbMinor=0   DsMajor=0   DsMinor=0   Rd=0   Ro=0   MaxAggSize=0
   Frame=782264   DesignSect="Program Determined"   FrameType="Program Determined"   RLLF=0   XLMajor=0   XLMinor=0   XKMajor=0   XKMinor=0   CmMajor=0   CmMinor=0   DbMajor=0   DbMinor=0   DsMajor=0   DsMinor=0   Rd=0   Ro=0   MaxAggSize=0
   Frame=782265   DesignSect="Program Determined"   FrameType="Program Determined"   RLLF=0   XLMajor=0   XLMinor=0   XKMajor=0   XKMinor=0   CmMajor=0   CmMinor=0   DbMajor=0   DbMinor=0   DsMajor=0   DsMinor=0   Rd=0   Ro=0   MaxAggSize=0
   Frame=782266   DesignSect="Program Determined"   FrameType="Program Determined"   RLLF=0   XLMajor=0   XLMinor=0   XKMajor=0   XKMinor=0   CmMajor=0   CmMinor=0   DbMajor=0   DbMinor=0   DsMajor=0   DsMinor=0   Rd=0   Ro=0   MaxAggSize=0
   Frame=782267   DesignSect="Program Determined"   FrameType="Program Determined"   RLLF=0   XLMajor=0   XLMinor=0   XKMajor=0   XKMinor=0   CmMajor=0   CmMinor=0   DbMajor=0   DbMinor=0   DsMajor=0   DsMinor=0   Rd=0   Ro=0   MaxAggSize=0
   Frame=782268   DesignSect="Program Determined"   FrameType="Program Determined"   RLLF=0   XLMajor=0   XLMinor=0   XKMajor=0   XKMinor=0   CmMajor=0   CmMinor=0   DbMajor=0   DbMinor=0   DsMajor=0   DsMinor=0   Rd=0   Ro=0   MaxAggSize=0
   Frame=782269   DesignSect="Program Determined"   FrameType="Program Determined"   RLLF=0   XLMajor=0   XLMinor=0   XKMajor=0   XKMinor=0   CmMajor=0   CmMinor=0   DbMajor=0   DbMinor=0   DsMajor=0   DsMinor=0   Rd=0   Ro=0   MaxAggSize=0
   Frame=782270   DesignSect="Program Determined"   FrameType="Program Determined"   RLLF=0   XLMajor=0   XLMinor=0   XKMajor=0   XKMinor=0   CmMajor=0   CmMinor=0   DbMajor=0   DbMinor=0   DsMajor=0   DsMinor=0   Rd=0   Ro=0   MaxAggSize=0
   Frame=782271   DesignSect="Program Determined"   FrameType="Program Determined"   RLLF=0   XLMajor=0   XLMinor=0   XKMajor=0   XKMinor=0   CmMajor=0   CmMinor=0   DbMajor=0   DbMinor=0   DsMajor=0   DsMinor=0   Rd=0   Ro=0   MaxAggSize=0
   Frame=782272   DesignSect="Program Determined"   FrameType="Program Determined"   RLLF=0   XLMajor=0   XLMinor=0   XKMajor=0   XKMinor=0   CmMajor=0   CmMinor=0   DbMajor=0   DbMinor=0   DsMajor=0   DsMinor=0   Rd=0   Ro=0   MaxAggSize=0
   Frame=782273   DesignSect="Program Determined"   FrameType="Program Determined"   RLLF=0   XLMajor=0   XLMinor=0   XKMajor=0   XKMinor=0   CmMajor=0   CmMinor=0   DbMajor=0   DbMinor=0   DsMajor=0   DsMinor=0   Rd=0   Ro=0   MaxAggSize=0
   Frame=782274   DesignSect="Program Determined"   FrameType="Program Determined"   RLLF=0   XLMajor=0   XLMinor=0   XKMajor=0   XKMinor=0   CmMajor=0   CmMinor=0   DbMajor=0   DbMinor=0   DsMajor=0   DsMinor=0   Rd=0   Ro=0   MaxAggSize=0
   Frame=782275   DesignSect="Program Determined"   FrameType="Program Determined"   RLLF=0   XLMajor=0   XLMinor=0   XKMajor=0   XKMinor=0   CmMajor=0   CmMinor=0   DbMajor=0   DbMinor=0   DsMajor=0   DsMinor=0   Rd=0   Ro=0   MaxAggSize=0
   Frame=782276   DesignSect="Program Determined"   FrameType="Program Determined"   RLLF=0   XLMajor=0   XLMinor=0   XKMajor=0   XKMinor=0   CmMajor=0   CmMinor=0   DbMajor=0   DbMinor=0   DsMajor=0   DsMinor=0   Rd=0   Ro=0   MaxAggSize=0
   Frame=782277   DesignSect="Program Determined"   FrameType="Program Determined"   RLLF=0   XLMajor=0   XLMinor=0   XKMajor=0   XKMinor=0   CmMajor=0   CmMinor=0   DbMajor=0   DbMinor=0   DsMajor=0   DsMinor=0   Rd=0   Ro=0   MaxAggSize=0
   Frame=782278   DesignSect="Program Determined"   FrameType="Program Determined"   RLLF=0   XLMajor=0   XLMinor=0   XKMajor=0   XKMinor=0   CmMajor=0   CmMinor=0   DbMajor=0   DbMinor=0   DsMajor=0   DsMinor=0   Rd=0   Ro=0   MaxAggSize=0
   Frame=782279   DesignSect="Program Determined"   FrameType="Program Determined"   RLLF=0   XLMajor=0   XLMinor=0   XKMajor=0   XKMinor=0   CmMajor=0   CmMinor=0   DbMajor=0   DbMinor=0   DsMajor=0   DsMinor=0   Rd=0   Ro=0   MaxAggSize=0
# ... 30 like lines cut
 
TABLE:  "PREFERENCES - ALUMINUM DESIGN - AA 2015"
   THDesign=Envelopes   SRatioLimit=1   Provision=ASD   LatFact=1.33333333333333   UseLatFact=No   Bridge=No   OmegaTy=1.65   OmegaTr=1.95   OmegaC=1.65   OmegaBo=1.65   OmegaBr=1.95   OmegaVo=1.65   OmegaVr=1.95
 
TABLE:  "PREFERENCES - COLD FORMED DESIGN - AISI-ASD96"
   THDesign=Envelopes   FrameType="Braced Frame"   SRatioLimit=1   MaxIter=1   OmegaBS=1.67   OmegaBUS=1.67   OmegaBLTB=1.67   OmegaVS=1.67   OmegaVNS=1.5   OmegaT=1.67   OmegaC=1.8
 
TABLE:  "PREFERENCES - CONCRETE DESIGN - CSA-A233-14"
   THDesign=Envelopes   NumCurves=24   NumPoints=11   MinEccen=Yes   BCCDesign=Yes   CTorsion=Yes   PatLLF=0.75   UFLimit=0.95   PhiS=0.85   PhiC=0.65
 
TABLE:  "PREFERENCES - CONCRETE SHELL DESIGN - EUROCODE 2-2004"
   Country="CEN Default"   GammaS=1.15   GammaC=1.5   AlphaCC=1
 
TABLE:  "PREFERENCES - DIMENSIONAL"
   MergeTol=0.001   FineGrid=0.25   Nudge=0.25   SelectTol=3   SnapTol=12   SLineThick=1   PLineThick=4   MaxFont=8   MinFont=3   AutoZoom=10   ShrinkFact=70   TextFileLen=240
 
TABLE:  "PREFERENCES - STEEL DESIGN - AISC 360-10"
   THDesign=Envelopes   FrameType=SMF   PatLLF=0.75   SRatioLimit=0.95   MaxIter=1   SDC=D   SeisCode=No   SeisLoad=No   ImpFactor=1   SystemRho=1   SystemSds=0.5   SystemR=8   SystemCd=5.5   Omega0=3   Provision=LRFD _
        AMethod="Direct Analysis"   SOMethod="General 2nd Order"   SRMethod="Tau-b Fixed"   NLCoeff=0.002   PhiB=0.9   PhiC=0.9   PhiTY=0.9   PhiTF=0.75   PhiV=0.9   PhiVRolledI=1   PhiVT=0.9   PlugWeld=Yes   HSSWelding=ERW   HSSReduceT=No _
        CheckDefl=No   DLRat=120   SDLAndLLRat=120   LLRat=360   TotalRat=240   NetRat=240
 
TABLE:  "PROGRAM CONTROL"
   ProgramName=SAP2000   Version=24.0.0   CurrUnits="Tonf, m, C"   SteelCode="AISC 360-10"   ConcCode="CSA A23.3-14"   AlumCode="AA 2015"   ColdCode=AISI-ASD96   RegenHinge=Yes
 
TABLE:  "PROJECT INFORMATION"
   Item="Company Name"   Data=po
   Item="Client Name"
   Item="Project Name"
   Item="Project Number"
   Item="Model Name"
   Item="Model Description"
   Item="Revision Number"
   Item="Frame Type"
   Item=Engineer
   Item=Checker
   Item=Supervisor
   Item="Issue Code"
   Item="Design Code"
 
TABLE:  "REBAR SIZES"
   RebarID=#2   Area=3.2258E-05   Diameter=0.00635
   RebarID=#3   Area=7.09675996154547E-05   Diameter=0.009525
   RebarID=#4   Area=0.000129032001922727   Diameter=0.0127
   RebarID=#5   Area=0.000199999601538181   Diameter=0.015875
   RebarID=#6   Area=0.000283870398461819   Diameter=0.01905
   RebarID=#7   Area=0.000387096015381813   Diameter=0.022225
   RebarID=#8   Area=0.000509676413843632   Diameter=0.0254
   RebarID=#9   Area=0.00064516   Diameter=0.0286512005329132
   RebarID=#10   Area=0.00081935318769455   Diameter=0.0322579995155334
   RebarID=#11   Area=0.00100644956308365   Diameter=0.0358139991521835
   RebarID=#14   Area=0.00145161   Diameter=0.0430021989583969
   RebarID=#18   Area=0.00258064   Diameter=0.0573277992248535
   RebarID=10M   Area=0.000100000004162606   Diameter=0.0113000003604438
   RebarID=15M   Area=0.000200000008325212   Diameter=0.0160000002402959
   RebarID=20M   Area=0.000300000012487818   Diameter=0.0195000002928606
   RebarID=25M   Area=0.000500000020813031   Diameter=0.0252000011414055
   RebarID=30M   Area=0.000700000029138243   Diameter=0.0299000000675832
   RebarID=35M   Area=0.00100000004162606   Diameter=0.0357000012990997
   RebarID=45M   Area=0.00150000006243909   Diameter=0.0437000014192476
   RebarID=55M   Area=0.00250000010406515   Diameter=0.056400002372922
   RebarID=6d   Area=2.83000004150781E-05   Diameter=0.00600000009011096
   RebarID=8d   Area=5.03000013308514E-05   Diameter=0.00800000012014795
   RebarID=10d   Area=7.85000032676458E-05   Diameter=0.0100000001501849
   RebarID=12d   Area=0.000113000004703745   Diameter=0.0120000001802219
   RebarID=14d   Area=0.000154000006410413   Diameter=0.0140000002102589
   RebarID=16d   Area=0.000201000008366838   Diameter=0.0160000002402959
   RebarID=20d   Area=0.000314000013070583   Diameter=0.0200000003003699
   RebarID=25d   Area=0.000491000020438396   Diameter=0.0250000003754623
   RebarID=26d   Area=0.000531000022103439   Diameter=0.0260000003904808
   RebarID=28d   Area=0.000616000025641654   Diameter=0.0280000004205178
   RebarID=N12   Area=0.000113000004703745   Diameter=0.0120000001802219
   RebarID=N16   Area=0.000201000008366838   Diameter=0.0160000002402959
   RebarID=N20   Area=0.000314000013070583   Diameter=0.0200000003003699
   RebarID=N24   Area=0.00045200001881498   Diameter=0.0240000003604438
   RebarID=N28   Area=0.000616000025641654   Diameter=0.0280000004205178
   RebarID=N32   Area=0.000804000033467353   Diameter=0.0320000004805918
   RebarID=N36   Area=0.00102000004245858   Diameter=0.0360000005406658
 
TABLE:  "SOLID PROPERTY DEFINITIONS"
   SolidProp=Solid1   Material=BTCT   MatAngleA=0   MatAngleB=0   MatAngleC=0   InComp=Yes   Color=Gray8Dark
 
END TABLE DATA
