File D:\ResearchLab\02_Projects\02_Projects\Tap chi XD_SFOA\code\SOO_MPJ\MPJ_Sap\SOO_Displacement_W03\MPJ_3.$2k was saved on m/d/yy at h:mm:ss
 
TABLE:  "ACTIVE DEGREES OF FREEDOM"
   UX=Yes   UY=Yes   UZ=Yes   RX=Yes   RY=Yes   RZ=Yes
 
TABLE:  "ANALYSIS OPTIONS"
   Solver=Advanced   SolverProc=Auto   Force32Bit=No   StiffCase=None   GeomMod=None   HingeOpt="In Elements"   NumAThreads=0   MaxFileSize=0   NumDThreads=0   NumRThreads=0   UseMMFiles="Program Determined"   AllowDiff=No
 
TABLE:  "AREA AUTO MESH ASSIGNMENTS"
   Area=326147   MeshType="Number of Elements"   MeshGroup=ALL   Number1=3   Number2=3   LocalEdge=No   LocalFace=No   SuppEdge=No   SuppFace=No   SubMesh=No
   Area=326148   MeshType="Number of Elements"   MeshGroup=ALL   Number1=3   Number2=3   LocalEdge=No   LocalFace=No   SuppEdge=No   SuppFace=No   SubMesh=No
   Area=326149   MeshType="Number of Elements"   MeshGroup=ALL   Number1=3   Number2=3   LocalEdge=No   LocalFace=No   SuppEdge=No   SuppFace=No   SubMesh=No
   Area=326150   MeshType="Number of Elements"   MeshGroup=ALL   Number1=3   Number2=3   LocalEdge=No   LocalFace=No   SuppEdge=No   SuppFace=No   SubMesh=No
   Area=326151   MeshType="Number of Elements"   MeshGroup=ALL   Number1=3   Number2=3   LocalEdge=No   LocalFace=No   SuppEdge=No   SuppFace=No   SubMesh=No
   Area=326152   MeshType="Number of Elements"   MeshGroup=ALL   Number1=3   Number2=3   LocalEdge=No   LocalFace=No   SuppEdge=No   SuppFace=No   SubMesh=No
   Area=326153   MeshType="Number of Elements"   MeshGroup=ALL   Number1=3   Number2=3   LocalEdge=No   LocalFace=No   SuppEdge=No   SuppFace=No   SubMesh=No
   Area=326154   MeshType="Number of Elements"   MeshGroup=ALL   Number1=3   Number2=3   LocalEdge=No   LocalFace=No   SuppEdge=No   SuppFace=No   SubMesh=No
   Area=326155   MeshType="Number of Elements"   MeshGroup=ALL   Number1=3   Number2=3   LocalEdge=No   LocalFace=No   SuppEdge=No   SuppFace=No   SubMesh=No
   Area=326156   MeshType="Number of Elements"   MeshGroup=ALL   Number1=3   Number2=3   LocalEdge=No   LocalFace=No   SuppEdge=No   SuppFace=No   SubMesh=No
   Area=326157   MeshType="Number of Elements"   MeshGroup=ALL   Number1=3   Number2=3   LocalEdge=No   LocalFace=No   SuppEdge=No   SuppFace=No   SubMesh=No
   Area=326158   MeshType="Number of Elements"   MeshGroup=ALL   Number1=3   Number2=3   LocalEdge=No   LocalFace=No   SuppEdge=No   SuppFace=No   SubMesh=No
   Area=326159   MeshType="Number of Elements"   MeshGroup=ALL   Number1=3   Number2=3   LocalEdge=No   LocalFace=No   SuppEdge=No   SuppFace=No   SubMesh=No
   Area=326160   MeshType="Number of Elements"   MeshGroup=ALL   Number1=3   Number2=3   LocalEdge=No   LocalFace=No   SuppEdge=No   SuppFace=No   SubMesh=No
   Area=326161   MeshType="Number of Elements"   MeshGroup=ALL   Number1=3   Number2=3   LocalEdge=No   LocalFace=No   SuppEdge=No   SuppFace=No   SubMesh=No
   Area=326162   MeshType="Number of Elements"   MeshGroup=ALL   Number1=3   Number2=3   LocalEdge=No   LocalFace=No   SuppEdge=No   SuppFace=No   SubMesh=No
   Area=326163   MeshType="Number of Elements"   MeshGroup=ALL   Number1=3   Number2=3   LocalEdge=No   LocalFace=No   SuppEdge=No   SuppFace=No   SubMesh=No
   Area=326164   MeshType="Number of Elements"   MeshGroup=ALL   Number1=3   Number2=3   LocalEdge=No   LocalFace=No   SuppEdge=No   SuppFace=No   SubMesh=No
   Area=326165   MeshType="Number of Elements"   MeshGroup=ALL   Number1=3   Number2=3   LocalEdge=No   LocalFace=No   SuppEdge=No   SuppFace=No   SubMesh=No
   Area=326166   MeshType="Number of Elements"   MeshGroup=ALL   Number1=3   Number2=3   LocalEdge=No   LocalFace=No   SuppEdge=No   SuppFace=No   SubMesh=No
# ... 20 like lines cut
 
TABLE:  "AREA LOADS - UNIFORM"
   Area=326147   LoadPat=LL   CoordSys=GLOBAL   Dir=Gravity   UnifLoad=1.00034158457019
   Area=326148   LoadPat=LL   CoordSys=GLOBAL   Dir=Gravity   UnifLoad=1.00034158457019
   Area=326149   LoadPat=LL   CoordSys=GLOBAL   Dir=Gravity   UnifLoad=1.00034158457019
   Area=326150   LoadPat=LL   CoordSys=GLOBAL   Dir=Gravity   UnifLoad=1.00034158457019
   Area=326151   LoadPat=LL   CoordSys=GLOBAL   Dir=Gravity   UnifLoad=1.00034158457019
   Area=326152   LoadPat=LL   CoordSys=GLOBAL   Dir=Gravity   UnifLoad=1.00034158457019
   Area=326153   LoadPat=LL   CoordSys=GLOBAL   Dir=Gravity   UnifLoad=1.00034158457019
   Area=326154   LoadPat=LL   CoordSys=GLOBAL   Dir=Gravity   UnifLoad=1.00034158457019
   Area=326155   LoadPat=LL   CoordSys=GLOBAL   Dir=Gravity   UnifLoad=1.00034158457019
   Area=326156   LoadPat=LL   CoordSys=GLOBAL   Dir=Gravity   UnifLoad=1.00034158457019
   Area=326157   LoadPat=LL   CoordSys=GLOBAL   Dir=Gravity   UnifLoad=1.00034158457019
   Area=326158   LoadPat=LL   CoordSys=GLOBAL   Dir=Gravity   UnifLoad=1.00034158457019
   Area=326159   LoadPat=LL   CoordSys=GLOBAL   Dir=Gravity   UnifLoad=1.00034158457019
   Area=326160   LoadPat=LL   CoordSys=GLOBAL   Dir=Gravity   UnifLoad=1.00034158457019
   Area=326161   LoadPat=LL   CoordSys=GLOBAL   Dir=Gravity   UnifLoad=1.00034158457019
   Area=326162   LoadPat=LL   CoordSys=GLOBAL   Dir=Gravity   UnifLoad=1.00034158457019
   Area=326163   LoadPat=LL   CoordSys=GLOBAL   Dir=Gravity   UnifLoad=1.00034158457019
   Area=326164   LoadPat=LL   CoordSys=GLOBAL   Dir=Gravity   UnifLoad=1.00034158457019
   Area=326165   LoadPat=LL   CoordSys=GLOBAL   Dir=Gravity   UnifLoad=1.00034158457019
   Area=326166   LoadPat=LL   CoordSys=GLOBAL   Dir=Gravity   UnifLoad=1.00034158457019
# ... 20 like lines cut
 
TABLE:  "AREA SECTION ASSIGNMENTS"
   Area=326147   Section=Deck   MatProp=Default
   Area=326148   Section=Deck   MatProp=Default
   Area=326149   Section=Deck   MatProp=Default
   Area=326150   Section=Deck   MatProp=Default
   Area=326151   Section=Deck   MatProp=Default
   Area=326152   Section=Deck   MatProp=Default
   Area=326153   Section=Deck   MatProp=Default
   Area=326154   Section=Deck   MatProp=Default
   Area=326155   Section=Deck   MatProp=Default
   Area=326156   Section=Deck   MatProp=Default
   Area=326157   Section=Deck   MatProp=Default
   Area=326158   Section=Deck   MatProp=Default
   Area=326159   Section=Deck   MatProp=Default
   Area=326160   Section=Deck   MatProp=Default
   Area=326161   Section=Deck   MatProp=Default
   Area=326162   Section=Deck   MatProp=Default
   Area=326163   Section=Deck   MatProp=Default
   Area=326164   Section=Deck   MatProp=Default
   Area=326165   Section=Deck   MatProp=Default
   Area=326166   Section=Deck   MatProp=Default
# ... 20 like lines cut
 
TABLE:  "AREA SECTION PROPERTIES"
   Section=Deck   Material=BTCT   MatAngle=0   AreaType=Shell   Type=Shell-Thin   DrillDOF=Yes   Thickness=0.3   BendThick=0.3   Color=Green   F11Mod=1   F22Mod=1   F12Mod=1   M11Mod=1   M22Mod=1   M12Mod=1   V13Mod=1   V23Mod=1   MMod=1 _
        WMod=1   Notes="Added 24-Feb-23 16:56:47"
 
TABLE:  "AREA SECTION PROPERTY DESIGN PARAMETERS"
   Section=Deck   RebarMat=None   RebarOpt=Default
 
TABLE:  "AREA SECTION PROPERTY - TIME DEPENDENT"
   Section=Deck   TypeSize=User   AutoSFSize=1   UserValSize=0.1
 
TABLE:  "AUTO COMBINATION OPTION DATA 01 - GENERAL"
   DesignType=Concrete   AutoGen=Yes
 
TABLE:  "AUTO COMBINATION OPTION DATA 02 - USER DATA"
   DesignType=Concrete   LSType=Strength   LCName=DEAD
   DesignType=Concrete   LSType=Strength   LCName=LL
 
TABLE:  "AUTO WAVE 3 - WAVE CHARACTERISTICS - GENERAL"
   WaveChar=Default   WaveType="From Theory"   KinFactor=1   SWaterDepth=45   WaveHeight=18   WavePeriod=12   WaveTheory=Linear
 
TABLE:  "CASE - MODAL 1 - GENERAL"
   Case=MODAL   ModeType=Eigen   MaxNumModes=12   MinNumModes=1   EigenShift=0   EigenCutoff=0   EigenTol=1E-09   AutoShift=Yes
 
TABLE:  "CASE - STATIC 1 - LOAD ASSIGNMENTS"
   Case=DEAD   LoadType="Load pattern"   LoadName=DEAD   LoadSF=1
   Case=LL   LoadType="Load pattern"   LoadName=LL   LoadSF=1
 
TABLE:  "COMBINATION DEFINITIONS"
   ComboName=COMB1   ComboType="Linear Add"   AutoDesign=No   CaseName=DEAD   ScaleFactor=1   SteelDesign=None   ConcDesign=Strength   AlumDesign=None   ColdDesign=None
   ComboName=COMB2   ComboType="Linear Add"   AutoDesign=No   CaseName=DEAD   ScaleFactor=1   SteelDesign=None   ConcDesign=Strength   AlumDesign=None   ColdDesign=None
   ComboName=COMB2   CaseName=LL   ScaleFactor=1
   ComboName=BAO   ComboType=Envelope   AutoDesign=No   CaseName=COMB1   ScaleFactor=1   SteelDesign=None   ConcDesign=Strength   AlumDesign=None   ColdDesign=None
   ComboName=BAO   CaseName=COMB2   ScaleFactor=1
   ComboName=DCON1   ComboType="Linear Add"   AutoDesign=Yes   CaseName=DEAD   ScaleFactor=1.4   SteelDesign=None   ConcDesign=Strength   AlumDesign=None   ColdDesign=None   GUID=bb4fff9a-98b5-44d1-9fde-34d92700a8e9   Notes="Dead Only; Strength"
   ComboName=DCON2   ComboType="Linear Add"   AutoDesign=Yes   CaseName=DEAD   ScaleFactor=1.25   SteelDesign=None   ConcDesign=Strength   AlumDesign=None   ColdDesign=None   GUID=505bcda7-6fac-4dd0-b03e-c591d1ffc6ce   Notes="Dead + Live; Strength"
   ComboName=DCON2   CaseName=LL   ScaleFactor=1.5
 
TABLE:  "CONNECTIVITY - AREA"
   Area=326147   Joint1=953806   Joint2=953735   Joint3=953694   Joint4=953693   GUID=b7b383d8-8dcf-4bb9-bf9f-97f91764243f
   Area=326148   Joint1=953693   Joint2=953694   Joint3=953696   Joint4=953695   GUID=22689986-0951-4dc2-8b13-43a4d5df62da
   Area=326149   Joint1=953695   Joint2=953696   Joint3=953698   Joint4=953697   GUID=4c3dffa5-10f1-4a85-919b-2c911e9f3834
   Area=326150   Joint1=953697   Joint2=953698   Joint3=953700   Joint4=953699   GUID=3c10e3d3-a4b9-49a1-af41-2fa08f5bb3ee
   Area=326151   Joint1=953699   Joint2=953700   Joint3=953702   Joint4=953701   GUID=8d7fc440-6383-4708-914c-68ff3bf67eee
   Area=326152   Joint1=953701   Joint2=953702   Joint3=953704   Joint4=953703   GUID=924a5d46-7b8f-4b07-b8f6-3b8de44e1a89
   Area=326153   Joint1=953703   Joint2=953704   Joint3=953706   Joint4=953705   GUID=1bad0dcd-4537-497d-b10b-02e047861e67
   Area=326154   Joint1=953705   Joint2=953706   Joint3=953739   Joint4=953807   GUID=19b47a5d-8e7e-4569-a546-c2c689cfffc1
   Area=326155   Joint1=953735   Joint2=953736   Joint3=953707   Joint4=953694   GUID=c2877cc4-9b96-4663-a2cc-f697f98cb878
   Area=326156   Joint1=953694   Joint2=953707   Joint3=953708   Joint4=953696   GUID=bd5de5fb-24e0-4459-8132-74b6e9af0df9
   Area=326157   Joint1=953696   Joint2=953708   Joint3=953709   Joint4=953698   GUID=f87ac807-8475-4310-af51-074144348d49
   Area=326158   Joint1=953698   Joint2=953709   Joint3=953710   Joint4=953700   GUID=157532f6-4f95-4802-9689-d9a617f49f83
   Area=326159   Joint1=953700   Joint2=953710   Joint3=953711   Joint4=953702   GUID=7a6cd9c9-83a7-4465-beb2-cb480a6b9d71
   Area=326160   Joint1=953702   Joint2=953711   Joint3=953712   Joint4=953704   GUID=91db773c-173d-4d30-9fdb-08ff207b36eb
   Area=326161   Joint1=953704   Joint2=953712   Joint3=953713   Joint4=953706   GUID=db08a0ed-a685-4aa2-8caa-43996473599e
   Area=326162   Joint1=953706   Joint2=953713   Joint3=953740   Joint4=953739   GUID=e644d338-e0b3-4bfb-9669-bd5be2e6a1e4
   Area=326163   Joint1=953736   Joint2=953737   Joint3=953714   Joint4=953707   GUID=d5265778-8241-40cf-b1c3-a8cfe081dfc5
   Area=326164   Joint1=953707   Joint2=953714   Joint3=953715   Joint4=953708   GUID=70dd5561-ca72-455d-a239-bb0e64a7bfab
   Area=326165   Joint1=953708   Joint2=953715   Joint3=953716   Joint4=953709   GUID=80b19890-c056-45ee-a92e-3b5e21f69d93
   Area=326166   Joint1=953709   Joint2=953716   Joint3=953717   Joint4=953710   GUID=be100d7d-c9fc-4547-a14d-6f71b1fb5970
   Area=326167   Joint1=953710   Joint2=953717   Joint3=953718   Joint4=953711   GUID=46fb165b-9036-43fb-8c30-3a0dca1ee37c
   Area=326168   Joint1=953711   Joint2=953718   Joint3=953719   Joint4=953712   GUID=8d1d78d4-aa16-4741-99a7-c71be914ce93
   Area=326169   Joint1=953712   Joint2=953719   Joint3=953720   Joint4=953713   GUID=acf733a8-4f1c-4fc1-aad3-75bfca5517a4
   Area=326170   Joint1=953713   Joint2=953720   Joint3=953741   Joint4=953740   GUID=79fd4c10-c0e0-46ae-ba5d-7d67475e7e9b
   Area=326171   Joint1=953737   Joint2=953738   Joint3=953721   Joint4=953714   GUID=7b663d71-3e58-4bba-bfd0-445bdfafc743
   Area=326172   Joint1=953714   Joint2=953721   Joint3=953722   Joint4=953715   GUID=03cdd72a-a907-440e-99ff-1a68e449be9a
   Area=326173   Joint1=953715   Joint2=953722   Joint3=953723   Joint4=953716   GUID=7a19c2c5-1d9f-4297-ac75-298c0b17ec53
   Area=326174   Joint1=953716   Joint2=953723   Joint3=953724   Joint4=953717   GUID=90f725f3-9d55-4ae1-8256-84f875bcc64c
   Area=326175   Joint1=953717   Joint2=953724   Joint3=953725   Joint4=953718   GUID=22786b85-4a5d-4e19-8a77-02ce6cfd59e7
   Area=326176   Joint1=953718   Joint2=953725   Joint3=953726   Joint4=953719   GUID=1ed6ded5-3b47-45e6-ae9a-d2e24ea42dc0
   Area=326177   Joint1=953719   Joint2=953726   Joint3=953727   Joint4=953720   GUID=675b1613-2b86-49c5-827c-b083015bb2e8
   Area=326178   Joint1=953720   Joint2=953727   Joint3=953742   Joint4=953741   GUID=f3950f6c-9af4-481f-9656-dc111003a3c5
   Area=326179   Joint1=953738   Joint2=953808   Joint3=953728   Joint4=953721   GUID=9dbe19bf-7cb5-4546-9315-1f40dfc95357
   Area=326180   Joint1=953721   Joint2=953728   Joint3=953729   Joint4=953722   GUID=f4e185ab-b3fa-4e8f-92e1-e09e55c8d5c4
   Area=326181   Joint1=953722   Joint2=953729   Joint3=953730   Joint4=953723   GUID=6a78af0c-1aff-4ce6-a7dc-a06fbaff6e6a
   Area=326182   Joint1=953723   Joint2=953730   Joint3=953731   Joint4=953724   GUID=78113aee-0d46-4ba1-9291-097e9ba63769
   Area=326183   Joint1=953724   Joint2=953731   Joint3=953732   Joint4=953725   GUID=52f393e4-36bc-4531-8fc9-f82b9d50a158
   Area=326184   Joint1=953725   Joint2=953732   Joint3=953733   Joint4=953726   GUID=162322f0-d3f6-4a17-a984-9327638e37a1
   Area=326185   Joint1=953726   Joint2=953733   Joint3=953734   Joint4=953727   GUID=1c9bdefa-7c28-498a-a079-3cc27c3b37c5
   Area=326186   Joint1=953727   Joint2=953734   Joint3=953809   Joint4=953742   GUID=40773a78-84ad-4ed2-9e49-98d589cb3932
 
TABLE:  "CONNECTIVITY - FRAME"
   Frame=1106649   JointI=953693   JointJ=953694   IsCurved=No   GUID=7bdf50c6-2b04-4ee2-9d84-6c611ceb5b90
   Frame=1106650   JointI=953695   JointJ=953696   IsCurved=No   GUID=12d751f3-ee2c-4cba-a9ce-016a02171116
   Frame=1106651   JointI=953697   JointJ=953698   IsCurved=No   GUID=d0a1c9c1-f3cb-4e8b-b095-7d6ba28fb9ac
   Frame=1106652   JointI=953699   JointJ=953700   IsCurved=No   GUID=02973206-2e53-4259-b943-f18f44c29da0
   Frame=1106653   JointI=953701   JointJ=953702   IsCurved=No   GUID=fb1afe0b-34c3-4773-8e0b-734baedea0ad
   Frame=1106654   JointI=953703   JointJ=953704   IsCurved=No   GUID=e22abc9e-1231-4994-8118-08fbe806d02c
   Frame=1106655   JointI=953705   JointJ=953706   IsCurved=No   GUID=a3f0882f-8286-4a0e-a084-0644baba73e4
   Frame=1106656   JointI=953694   JointJ=953707   IsCurved=No   GUID=bb22edd9-888a-40ab-98d4-4d8c4a208df5
   Frame=1106657   JointI=953696   JointJ=953708   IsCurved=No   GUID=8694a672-33ba-4f57-8c4d-25bd15d6fd0a
   Frame=1106658   JointI=953698   JointJ=953709   IsCurved=No   GUID=a9cd8f6d-cba1-44d6-9e7c-4377d945765d
   Frame=1106659   JointI=953700   JointJ=953710   IsCurved=No   GUID=40855836-223d-4655-9e1d-7a8b05e3dbbb
   Frame=1106660   JointI=953702   JointJ=953711   IsCurved=No   GUID=6aa5fd12-4a91-46e0-b149-4dc9e2d070ed
   Frame=1106661   JointI=953704   JointJ=953712   IsCurved=No   GUID=dcb1da28-d1c9-4fa1-bd68-5f0cb7ae4fdc
   Frame=1106662   JointI=953706   JointJ=953713   IsCurved=No   GUID=bf9eeccb-06d8-4c2a-a663-0c213bebf214
   Frame=1106663   JointI=953707   JointJ=953714   IsCurved=No   GUID=19a32686-d9dc-417c-a698-a86e2d495f49
   Frame=1106664   JointI=953708   JointJ=953715   IsCurved=No   GUID=9fa21c05-6316-45ef-a985-829bba5ae398
   Frame=1106665   JointI=953709   JointJ=953716   IsCurved=No   GUID=62bfc302-bbbd-49fb-93cb-c9c3f694d850
   Frame=1106666   JointI=953710   JointJ=953717   IsCurved=No   GUID=9a1667da-8e0f-40f9-b418-2e13fe179936
   Frame=1106667   JointI=953711   JointJ=953718   IsCurved=No   GUID=c28988fa-1256-46d8-8722-128778ee161d
   Frame=1106668   JointI=953712   JointJ=953719   IsCurved=No   GUID=3d757170-6143-4285-8bca-0e1a14f99a03
   Frame=1106669   JointI=953713   JointJ=953720   IsCurved=No   GUID=b0baee0e-38c1-475d-8cea-e62ea67eb873
   Frame=1106670   JointI=953714   JointJ=953721   IsCurved=No   GUID=f1e8d803-ec80-458f-bb24-7af9461d8e0c
   Frame=1106671   JointI=953715   JointJ=953722   IsCurved=No   GUID=d2d14b4b-ff6f-4aae-99b8-ef5f1995b0d9
   Frame=1106672   JointI=953716   JointJ=953723   IsCurved=No   GUID=cca516f3-de54-40f5-a268-ac0bb5ea0dfb
   Frame=1106673   JointI=953717   JointJ=953724   IsCurved=No   GUID=ff34d3e4-2d46-46b9-af85-d70a9ab043a3
   Frame=1106674   JointI=953718   JointJ=953725   IsCurved=No   GUID=0546284e-ba48-4e02-8630-988fada8db95
   Frame=1106675   JointI=953719   JointJ=953726   IsCurved=No   GUID=1a06a2de-9cea-4895-8175-7b64ec2f6eea
   Frame=1106676   JointI=953720   JointJ=953727   IsCurved=No   GUID=49b1561d-5c37-48b4-8084-1fc43d81ffa1
   Frame=1106677   JointI=953721   JointJ=953728   IsCurved=No   GUID=71c94b6d-36a9-42fb-9826-690bcf42b9c7
   Frame=1106678   JointI=953722   JointJ=953729   IsCurved=No   GUID=5a5abe45-6119-4b15-8d77-4ebd37d1245c
   Frame=1106679   JointI=953723   JointJ=953730   IsCurved=No   GUID=f6aea5cd-066a-4712-8895-7a371bbb0f7b
   Frame=1106680   JointI=953724   JointJ=953731   IsCurved=No   GUID=262d2bbd-3187-46a8-ad2a-b4f38c4a70f1
   Frame=1106681   JointI=953725   JointJ=953732   IsCurved=No   GUID=e600a5f3-6e24-48b2-b99a-5eccbbde0ec1
   Frame=1106682   JointI=953726   JointJ=953733   IsCurved=No   GUID=2f39dfed-94c7-4b9d-ad98-3158d0c1b3e0
   Frame=1106683   JointI=953727   JointJ=953734   IsCurved=No   GUID=4fcbae1e-d9ae-4515-9f32-3f01a62810a6
   Frame=1106684   JointI=953735   JointJ=953694   IsCurved=No   GUID=7e5f328e-902d-48d6-b6ff-ca860c92b6d7
   Frame=1106685   JointI=953736   JointJ=953707   IsCurved=No   GUID=f5d1edf7-969d-4c9c-8b21-abfa9fb3af82
   Frame=1106686   JointI=953737   JointJ=953714   IsCurved=No   GUID=9456431a-cf4d-46c4-8812-289e5491cbb9
   Frame=1106687   JointI=953738   JointJ=953721   IsCurved=No   GUID=058a2fb8-f442-46d6-9703-4a629d898af4
   Frame=1106688   JointI=953694   JointJ=953696   IsCurved=No   GUID=e720ebeb-68a0-464d-a3b6-2c96a25c7cc4
   Frame=1106689   JointI=953707   JointJ=953708   IsCurved=No   GUID=f14a15a2-44e3-45d5-aa6f-f5eb7f8dc204
   Frame=1106690   JointI=953714   JointJ=953715   IsCurved=No   GUID=f00329a9-35c7-4e57-b0b2-c60786a9b6b6
   Frame=1106691   JointI=953721   JointJ=953722   IsCurved=No   GUID=630398d6-3f47-4778-a7a0-242e4da3605c
   Frame=1106692   JointI=953696   JointJ=953698   IsCurved=No   GUID=13bf85d0-4763-4112-9cc5-3d940421fc45
   Frame=1106693   JointI=953708   JointJ=953709   IsCurved=No   GUID=ec9da550-e6e6-416c-8472-169d39889c0b
   Frame=1106694   JointI=953715   JointJ=953716   IsCurved=No   GUID=461089ea-2984-4541-9e27-8aeb21825c28
   Frame=1106695   JointI=953722   JointJ=953723   IsCurved=No   GUID=52078c84-2ace-4492-8713-e061dc0bd69e
   Frame=1106696   JointI=953698   JointJ=953700   IsCurved=No   GUID=63735e20-547b-46ff-a996-795d2e7bc13e
   Frame=1106697   JointI=953709   JointJ=953710   IsCurved=No   GUID=b604fe53-755f-4e8b-bc2d-5978a98c2a24
   Frame=1106698   JointI=953716   JointJ=953717   IsCurved=No   GUID=5f9d21d9-59b4-4c1b-88b3-35f7caba2019
   Frame=1106699   JointI=953723   JointJ=953724   IsCurved=No   GUID=dd4a9ede-d87f-4ac0-9db2-875d98822e3b
   Frame=1106700   JointI=953700   JointJ=953702   IsCurved=No   GUID=5d1f0c58-5427-4599-91a7-b94b5eefaf74
   Frame=1106701   JointI=953710   JointJ=953711   IsCurved=No   GUID=8c885602-9aae-46bc-a69f-15ce85dbcee2
   Frame=1106702   JointI=953717   JointJ=953718   IsCurved=No   GUID=0a851063-bf9b-4a98-84d4-c27af2d79119
   Frame=1106703   JointI=953724   JointJ=953725   IsCurved=No   GUID=5880e174-7603-437f-ad86-47b4b43305b9
   Frame=1106704   JointI=953702   JointJ=953704   IsCurved=No   GUID=626f4278-340f-48ed-ab90-36d98f9d819b
   Frame=1106705   JointI=953711   JointJ=953712   IsCurved=No   GUID=cb346979-e23e-4289-9188-34323bbd3db7
   Frame=1106706   JointI=953718   JointJ=953719   IsCurved=No   GUID=078567d8-450a-4fe7-a190-59b8b5f4e80a
   Frame=1106707   JointI=953725   JointJ=953726   IsCurved=No   GUID=73c56da9-6f0c-4447-8250-3876c49919e6
   Frame=1106708   JointI=953704   JointJ=953706   IsCurved=No   GUID=24e2f76b-ea7a-41d0-a692-a49727d6ecc4
   Frame=1106709   JointI=953712   JointJ=953713   IsCurved=No   GUID=cc59e87c-caa4-4e97-94fd-c5ab795547b1
   Frame=1106710   JointI=953719   JointJ=953720   IsCurved=No   GUID=c8995a51-d644-4d37-842c-57ed016c9339
   Frame=1106711   JointI=953726   JointJ=953727   IsCurved=No   GUID=5877b2f0-376f-43da-9608-ed819f131387
   Frame=1106712   JointI=953706   JointJ=953739   IsCurved=No   GUID=b8f860bb-58be-42c1-9351-56d18ac9d21f
   Frame=1106713   JointI=953713   JointJ=953740   IsCurved=No   GUID=94a5082a-2b30-465b-8c61-941c0bc3651e
   Frame=1106714   JointI=953720   JointJ=953741   IsCurved=No   GUID=dcfb689e-812f-4a38-b9f3-ba60409ce343
   Frame=1106715   JointI=953727   JointJ=953742   IsCurved=No   GUID=4447e586-5f81-4793-a308-f16e870ee9ab
   Frame=1106716   JointI=953694   JointJ=953743   IsCurved=No   GUID=54c9b89f-f748-4ac3-bf34-4803fbb0ddd3
   Frame=1106717   JointI=953743   JointJ=953744   IsCurved=No   GUID=682fb29c-b988-4d11-bc6d-d4dee8cd14f7
   Frame=1106718   JointI=953744   JointJ=953745   IsCurved=No   GUID=1049b1a6-e709-4656-88fe-1d0e27b23dc4
   Frame=1106719   JointI=953696   JointJ=953746   IsCurved=No   GUID=f63f2356-fbb4-4898-9d5a-c1020acf63a7
   Frame=1106720   JointI=953746   JointJ=953747   IsCurved=No   GUID=044ca696-f6e6-465f-be0e-88e5427340a0
   Frame=1106721   JointI=953747   JointJ=953748   IsCurved=No   GUID=97dbadaa-72a4-45e5-a65d-3007ff2ddafc
   Frame=1106722   JointI=953698   JointJ=953749   IsCurved=No   GUID=a1558df0-ef19-4954-bfce-a154663c13bf
   Frame=1106723   JointI=953749   JointJ=953750   IsCurved=No   GUID=6a99cea8-ee80-4389-b3d6-4e4c377644b0
   Frame=1106724   JointI=953750   JointJ=953751   IsCurved=No   GUID=450e7b8c-d62d-4d15-b001-87f81d95a79c
   Frame=1106725   JointI=953700   JointJ=953752   IsCurved=No   GUID=fca1de96-dad7-4127-9645-6c9f62b02e28
   Frame=1106726   JointI=953752   JointJ=953753   IsCurved=No   GUID=32d03d1f-1685-49ef-b795-a721f0538188
   Frame=1106727   JointI=953753   JointJ=953754   IsCurved=No   GUID=91987099-b544-4274-8a7b-368e1fd89adb
   Frame=1106728   JointI=953702   JointJ=953755   IsCurved=No   GUID=1c16a438-835e-4474-908e-67bd3af8e9bc
   Frame=1106729   JointI=953755   JointJ=953756   IsCurved=No   GUID=5c132142-f7ac-4213-b6ce-8e09f80d0d68
   Frame=1106730   JointI=953756   JointJ=953757   IsCurved=No   GUID=ac53e9a2-505a-44d0-8c0e-3d0a91741dea
   Frame=1106731   JointI=953704   JointJ=953758   IsCurved=No   GUID=1651f820-9f0d-400b-944b-fc3e46272117
   Frame=1106732   JointI=953758   JointJ=953759   IsCurved=No   GUID=e9ebf836-dc8b-46db-a2c3-919e65fee0b2
   Frame=1106733   JointI=953759   JointJ=953760   IsCurved=No   GUID=ace7b760-9de7-4bb7-8a05-fa0a98343b23
   Frame=1106734   JointI=953706   JointJ=953761   IsCurved=No   GUID=6dae8c6a-560c-417d-a6c6-1868601da43e
   Frame=1106735   JointI=953761   JointJ=953762   IsCurved=No   GUID=957b0381-d938-4d5c-9ebd-0b193b850f85
   Frame=1106736   JointI=953762   JointJ=953763   IsCurved=No   GUID=f0a4c1eb-d728-44a8-ac0d-da637be213b9
   Frame=1106737   JointI=953707   JointJ=953764   IsCurved=No   GUID=5f8c5e32-bd35-45b8-9a04-3d3e57ce2215
   Frame=1106738   JointI=953764   JointJ=953765   IsCurved=No   GUID=63baa050-0239-47e3-9d4b-c3ce859c251c
   Frame=1106739   JointI=953708   JointJ=953766   IsCurved=No   GUID=adad8d52-7a51-4d87-a7b6-399c316bac3b
   Frame=1106740   JointI=953766   JointJ=953767   IsCurved=No   GUID=27b96dcb-8227-4f2e-beae-ab3d2d3303da
   Frame=1106741   JointI=953709   JointJ=953768   IsCurved=No   GUID=ad00c9b5-9f53-415b-be4c-cea0456a3007
   Frame=1106742   JointI=953768   JointJ=953769   IsCurved=No   GUID=2bd5bcc3-f6dc-48bd-bca8-aa16b3ee15d1
   Frame=1106743   JointI=953710   JointJ=953770   IsCurved=No   GUID=2e5c83c3-c30b-48ce-9073-b0bbe6abf6e6
   Frame=1106744   JointI=953770   JointJ=953771   IsCurved=No   GUID=4cea8e97-f927-4089-aa76-d107b1be4ff1
   Frame=1106745   JointI=953711   JointJ=953772   IsCurved=No   GUID=890fe168-3a35-439f-bc3f-0438e8cd910e
   Frame=1106746   JointI=953772   JointJ=953773   IsCurved=No   GUID=56d2e6bd-f135-450e-a552-0e4065812b2b
   Frame=1106747   JointI=953712   JointJ=953774   IsCurved=No   GUID=4235fc85-2c2e-4ca0-b77a-16c4bda50bf0
   Frame=1106748   JointI=953774   JointJ=953775   IsCurved=No   GUID=2b701cd3-1952-482a-a3c0-fc32c5bc7921
   Frame=1106749   JointI=953713   JointJ=953776   IsCurved=No   GUID=11bde331-2cda-4193-98b6-47d9e6bfebf2
   Frame=1106750   JointI=953776   JointJ=953777   IsCurved=No   GUID=1812c7bf-266f-42e4-96f5-2dbfd8a4b6e3
   Frame=1106751   JointI=953714   JointJ=953778   IsCurved=No   GUID=2f4ad1f6-e244-4c1b-b676-b4b18a578179
   Frame=1106752   JointI=953778   JointJ=953779   IsCurved=No   GUID=570363d5-708d-45ad-9356-b8ba4219a245
   Frame=1106753   JointI=953715   JointJ=953780   IsCurved=No   GUID=074b74da-825d-4a4d-83a9-8ebc96c53cc7
   Frame=1106754   JointI=953780   JointJ=953781   IsCurved=No   GUID=2083a666-9350-40df-841f-a63e743a4a19
   Frame=1106755   JointI=953716   JointJ=953782   IsCurved=No   GUID=9fa279b4-b857-4c2a-bb36-07ac4bd76cfb
   Frame=1106756   JointI=953782   JointJ=953783   IsCurved=No   GUID=6f5a8cfa-750c-41d0-8e69-5822441dd8ce
   Frame=1106757   JointI=953717   JointJ=953784   IsCurved=No   GUID=af57de54-ba6c-46ca-bfb8-df9929277e90
   Frame=1106758   JointI=953784   JointJ=953785   IsCurved=No   GUID=c63a203a-211e-42ff-a3e1-0a44a44ff3e3
   Frame=1106759   JointI=953718   JointJ=953786   IsCurved=No   GUID=7d1d045c-6393-455f-a27c-50e705227325
   Frame=1106760   JointI=953786   JointJ=953787   IsCurved=No   GUID=66e0f4fc-e1f4-418b-a3b5-523a0e332a6c
   Frame=1106761   JointI=953719   JointJ=953788   IsCurved=No   GUID=f07761ae-fc36-4ef9-b058-91d4ed052718
   Frame=1106762   JointI=953788   JointJ=953789   IsCurved=No   GUID=4c0ed03d-318e-4aaf-9b07-a13cb67a83ad
   Frame=1106763   JointI=953720   JointJ=953790   IsCurved=No   GUID=ee897bab-22a7-4129-ad97-9941d4226dff
   Frame=1106764   JointI=953790   JointJ=953791   IsCurved=No   GUID=e7155439-4915-4678-b53b-1451154ca810
   Frame=1106765   JointI=953721   JointJ=953792   IsCurved=No   GUID=ac39d091-2b7c-4b24-89ef-942da54365ff
   Frame=1106766   JointI=953792   JointJ=953793   IsCurved=No   GUID=b58d3a02-d203-4738-a06e-c5672b5f4173
   Frame=1106767   JointI=953722   JointJ=953794   IsCurved=No   GUID=6c67ea43-d652-4ae5-9d2d-30b9d0e3d30f
   Frame=1106768   JointI=953794   JointJ=953795   IsCurved=No   GUID=7d474d1c-76fc-48e3-9219-cbc3750a0ec1
   Frame=1106769   JointI=953723   JointJ=953796   IsCurved=No   GUID=1942185c-39d4-40e3-bc6e-48361f62935e
   Frame=1106770   JointI=953796   JointJ=953797   IsCurved=No   GUID=4ab96f12-93bc-436f-864f-fdbd3192f7ef
   Frame=1106771   JointI=953724   JointJ=953798   IsCurved=No   GUID=95ef8d77-bad6-4da4-861e-d15e40e4ce7a
   Frame=1106772   JointI=953798   JointJ=953799   IsCurved=No   GUID=e5a98487-ae01-4ab7-8a46-d7702ccc7eb5
   Frame=1106773   JointI=953725   JointJ=953800   IsCurved=No   GUID=f966cf61-050d-47a3-b3c9-f8f3ead80bf5
   Frame=1106774   JointI=953800   JointJ=953801   IsCurved=No   GUID=67a74b31-c60f-4cb2-90ec-17c9f2c298c9
   Frame=1106775   JointI=953726   JointJ=953802   IsCurved=No   GUID=aed0f417-2f73-4282-98cc-e6c77bf1b3b1
   Frame=1106776   JointI=953802   JointJ=953803   IsCurved=No   GUID=8b48119c-056a-483d-b647-97b95b34ec71
   Frame=1106777   JointI=953727   JointJ=953804   IsCurved=No   GUID=a3448a7b-9e92-4122-b792-354de052d8fc
   Frame=1106778   JointI=953804   JointJ=953805   IsCurved=No   GUID=e9c0f7df-aeae-4ca9-b844-7dac3bede668
   Frame=1106779   JointI=953743   JointJ=953746   IsCurved=No   GUID=0b08e2d9-9477-4d63-8927-35a62e40ef94
   Frame=1106780   JointI=953746   JointJ=953749   IsCurved=No   GUID=a5bae340-085b-4c12-ad37-465baec202f8
   Frame=1106781   JointI=953749   JointJ=953752   IsCurved=No   GUID=48bf958c-2c80-4b9f-bc07-f96ad80529d4
   Frame=1106782   JointI=953752   JointJ=953755   IsCurved=No   GUID=40c7f0f7-0920-4d43-81ba-1ba5b265ea86
   Frame=1106783   JointI=953755   JointJ=953758   IsCurved=No   GUID=634e08dd-8199-445e-bc4e-c7b7641a18b8
   Frame=1106784   JointI=953758   JointJ=953761   IsCurved=No   GUID=a6ec8dc7-9d6d-43a1-b578-3a2bb86495ca
 
TABLE:  "COORDINATE SYSTEMS"
   Name=GLOBAL   Type=Cartesian   X=0   Y=0   Z=0   AboutZ=0   AboutY=0   AboutX=0
 
TABLE:  "DATABASE DOCUMENTATION"
 
TABLE:  "DATABASE FORMAT TYPES"
   UnitsCurr=Yes   OverrideE=No
 
TABLE:  "FRAME AUTO MESH ASSIGNMENTS"
   Frame=1106649   AutoMesh=Yes   AtJoints=Yes   AtFrames=No   NumSegments=0   MaxLength=0   MaxDegrees=0
   Frame=1106650   AutoMesh=Yes   AtJoints=Yes   AtFrames=No   NumSegments=0   MaxLength=0   MaxDegrees=0
   Frame=1106651   AutoMesh=Yes   AtJoints=Yes   AtFrames=No   NumSegments=0   MaxLength=0   MaxDegrees=0
   Frame=1106652   AutoMesh=Yes   AtJoints=Yes   AtFrames=No   NumSegments=0   MaxLength=0   MaxDegrees=0
   Frame=1106653   AutoMesh=Yes   AtJoints=Yes   AtFrames=No   NumSegments=0   MaxLength=0   MaxDegrees=0
   Frame=1106654   AutoMesh=Yes   AtJoints=Yes   AtFrames=No   NumSegments=0   MaxLength=0   MaxDegrees=0
   Frame=1106655   AutoMesh=Yes   AtJoints=Yes   AtFrames=No   NumSegments=0   MaxLength=0   MaxDegrees=0
   Frame=1106656   AutoMesh=Yes   AtJoints=Yes   AtFrames=No   NumSegments=0   MaxLength=0   MaxDegrees=0
   Frame=1106657   AutoMesh=Yes   AtJoints=Yes   AtFrames=No   NumSegments=0   MaxLength=0   MaxDegrees=0
   Frame=1106658   AutoMesh=Yes   AtJoints=Yes   AtFrames=No   NumSegments=0   MaxLength=0   MaxDegrees=0
   Frame=1106659   AutoMesh=Yes   AtJoints=Yes   AtFrames=No   NumSegments=0   MaxLength=0   MaxDegrees=0
   Frame=1106660   AutoMesh=Yes   AtJoints=Yes   AtFrames=No   NumSegments=0   MaxLength=0   MaxDegrees=0
   Frame=1106661   AutoMesh=Yes   AtJoints=Yes   AtFrames=No   NumSegments=0   MaxLength=0   MaxDegrees=0
   Frame=1106662   AutoMesh=Yes   AtJoints=Yes   AtFrames=No   NumSegments=0   MaxLength=0   MaxDegrees=0
   Frame=1106663   AutoMesh=Yes   AtJoints=Yes   AtFrames=No   NumSegments=0   MaxLength=0   MaxDegrees=0
   Frame=1106664   AutoMesh=Yes   AtJoints=Yes   AtFrames=No   NumSegments=0   MaxLength=0   MaxDegrees=0
   Frame=1106665   AutoMesh=Yes   AtJoints=Yes   AtFrames=No   NumSegments=0   MaxLength=0   MaxDegrees=0
   Frame=1106666   AutoMesh=Yes   AtJoints=Yes   AtFrames=No   NumSegments=0   MaxLength=0   MaxDegrees=0
   Frame=1106667   AutoMesh=Yes   AtJoints=Yes   AtFrames=No   NumSegments=0   MaxLength=0   MaxDegrees=0
   Frame=1106668   AutoMesh=Yes   AtJoints=Yes   AtFrames=No   NumSegments=0   MaxLength=0   MaxDegrees=0
# ... 116 like lines cut
 
TABLE:  "FRAME DESIGN PROCEDURES"
   Frame=1106649   DesignProc="From Material"
   Frame=1106650   DesignProc="From Material"
   Frame=1106651   DesignProc="From Material"
   Frame=1106652   DesignProc="From Material"
   Frame=1106653   DesignProc="From Material"
   Frame=1106654   DesignProc="From Material"
   Frame=1106655   DesignProc="From Material"
   Frame=1106656   DesignProc="From Material"
   Frame=1106657   DesignProc="From Material"
   Frame=1106658   DesignProc="From Material"
   Frame=1106659   DesignProc="From Material"
   Frame=1106660   DesignProc="From Material"
   Frame=1106661   DesignProc="From Material"
   Frame=1106662   DesignProc="From Material"
   Frame=1106663   DesignProc="From Material"
   Frame=1106664   DesignProc="From Material"
   Frame=1106665   DesignProc="From Material"
   Frame=1106666   DesignProc="From Material"
   Frame=1106667   DesignProc="From Material"
   Frame=1106668   DesignProc="From Material"
# ... 48 like lines cut
   Frame=1106717   DesignProc="No Design"
   Frame=1106718   DesignProc="No Design"
   Frame=1106719   DesignProc="From Material"
   Frame=1106720   DesignProc="No Design"
   Frame=1106721   DesignProc="No Design"
   Frame=1106722   DesignProc="From Material"
   Frame=1106723   DesignProc="No Design"
   Frame=1106724   DesignProc="No Design"
   Frame=1106725   DesignProc="From Material"
   Frame=1106726   DesignProc="No Design"
   Frame=1106727   DesignProc="No Design"
   Frame=1106728   DesignProc="From Material"
   Frame=1106729   DesignProc="No Design"
   Frame=1106730   DesignProc="No Design"
   Frame=1106731   DesignProc="From Material"
   Frame=1106732   DesignProc="No Design"
   Frame=1106733   DesignProc="No Design"
   Frame=1106734   DesignProc="From Material"
   Frame=1106735   DesignProc="No Design"
   Frame=1106736   DesignProc="No Design"
   Frame=1106737   DesignProc="No Design"
   Frame=1106738   DesignProc="No Design"
   Frame=1106739   DesignProc="No Design"
   Frame=1106740   DesignProc="No Design"
   Frame=1106741   DesignProc="No Design"
   Frame=1106742   DesignProc="No Design"
   Frame=1106743   DesignProc="No Design"
   Frame=1106744   DesignProc="No Design"
   Frame=1106745   DesignProc="No Design"
   Frame=1106746   DesignProc="No Design"
   Frame=1106747   DesignProc="No Design"
   Frame=1106748   DesignProc="No Design"
   Frame=1106749   DesignProc="No Design"
   Frame=1106750   DesignProc="No Design"
   Frame=1106751   DesignProc="No Design"
   Frame=1106752   DesignProc="No Design"
   Frame=1106753   DesignProc="No Design"
   Frame=1106754   DesignProc="No Design"
# ... 24 like lines cut
   Frame=1106779   DesignProc="From Material"
   Frame=1106780   DesignProc="From Material"
   Frame=1106781   DesignProc="From Material"
   Frame=1106782   DesignProc="From Material"
   Frame=1106783   DesignProc="From Material"
   Frame=1106784   DesignProc="From Material"
 
TABLE:  "FRAME LOAD TRANSFER OPTIONS"
   Frame=1106649   Transfer=Yes
   Frame=1106650   Transfer=Yes
   Frame=1106651   Transfer=Yes
   Frame=1106652   Transfer=Yes
   Frame=1106653   Transfer=Yes
   Frame=1106654   Transfer=Yes
   Frame=1106655   Transfer=Yes
   Frame=1106656   Transfer=Yes
   Frame=1106657   Transfer=Yes
   Frame=1106658   Transfer=Yes
   Frame=1106659   Transfer=Yes
   Frame=1106660   Transfer=Yes
   Frame=1106661   Transfer=Yes
   Frame=1106662   Transfer=Yes
   Frame=1106663   Transfer=Yes
   Frame=1106664   Transfer=Yes
   Frame=1106665   Transfer=Yes
   Frame=1106666   Transfer=Yes
   Frame=1106667   Transfer=Yes
   Frame=1106668   Transfer=Yes
# ... 116 like lines cut
 
TABLE:  "FRAME LOCAL AXES ASSIGNMENTS 1 - TYPICAL"
   Frame=1106716   Angle=90
   Frame=1106719   Angle=90
   Frame=1106722   Angle=90
   Frame=1106725   Angle=90
   Frame=1106728   Angle=90
   Frame=1106731   Angle=90
   Frame=1106734   Angle=90
 
TABLE:  "FRAME OUTPUT STATION ASSIGNMENTS"
   Frame=1106649   StationType=MaxStaSpcg   MaxStaSpcg=0.5   AddAtElmInt=Yes   AddAtPtLoad=Yes
   Frame=1106650   StationType=MaxStaSpcg   MaxStaSpcg=0.5   AddAtElmInt=Yes   AddAtPtLoad=Yes
   Frame=1106651   StationType=MaxStaSpcg   MaxStaSpcg=0.5   AddAtElmInt=Yes   AddAtPtLoad=Yes
   Frame=1106652   StationType=MaxStaSpcg   MaxStaSpcg=0.5   AddAtElmInt=Yes   AddAtPtLoad=Yes
   Frame=1106653   StationType=MaxStaSpcg   MaxStaSpcg=0.5   AddAtElmInt=Yes   AddAtPtLoad=Yes
   Frame=1106654   StationType=MaxStaSpcg   MaxStaSpcg=0.5   AddAtElmInt=Yes   AddAtPtLoad=Yes
   Frame=1106655   StationType=MaxStaSpcg   MaxStaSpcg=0.5   AddAtElmInt=Yes   AddAtPtLoad=Yes
   Frame=1106656   StationType=MaxStaSpcg   MaxStaSpcg=0.5   AddAtElmInt=Yes   AddAtPtLoad=Yes
   Frame=1106657   StationType=MaxStaSpcg   MaxStaSpcg=0.5   AddAtElmInt=Yes   AddAtPtLoad=Yes
   Frame=1106658   StationType=MaxStaSpcg   MaxStaSpcg=0.5   AddAtElmInt=Yes   AddAtPtLoad=Yes
   Frame=1106659   StationType=MaxStaSpcg   MaxStaSpcg=0.5   AddAtElmInt=Yes   AddAtPtLoad=Yes
   Frame=1106660   StationType=MaxStaSpcg   MaxStaSpcg=0.5   AddAtElmInt=Yes   AddAtPtLoad=Yes
   Frame=1106661   StationType=MaxStaSpcg   MaxStaSpcg=0.5   AddAtElmInt=Yes   AddAtPtLoad=Yes
   Frame=1106662   StationType=MaxStaSpcg   MaxStaSpcg=0.5   AddAtElmInt=Yes   AddAtPtLoad=Yes
   Frame=1106663   StationType=MaxStaSpcg   MaxStaSpcg=0.5   AddAtElmInt=Yes   AddAtPtLoad=Yes
   Frame=1106664   StationType=MaxStaSpcg   MaxStaSpcg=0.5   AddAtElmInt=Yes   AddAtPtLoad=Yes
   Frame=1106665   StationType=MaxStaSpcg   MaxStaSpcg=0.5   AddAtElmInt=Yes   AddAtPtLoad=Yes
   Frame=1106666   StationType=MaxStaSpcg   MaxStaSpcg=0.5   AddAtElmInt=Yes   AddAtPtLoad=Yes
   Frame=1106667   StationType=MaxStaSpcg   MaxStaSpcg=0.5   AddAtElmInt=Yes   AddAtPtLoad=Yes
   Frame=1106668   StationType=MaxStaSpcg   MaxStaSpcg=0.5   AddAtElmInt=Yes   AddAtPtLoad=Yes
# ... 47 like lines cut
   Frame=1106716   StationType=MinNumSta   MinNumSta=3   AddAtElmInt=Yes   AddAtPtLoad=Yes
   Frame=1106717   StationType=MinNumSta   MinNumSta=3   AddAtElmInt=Yes   AddAtPtLoad=Yes
   Frame=1106718   StationType=MinNumSta   MinNumSta=3   AddAtElmInt=Yes   AddAtPtLoad=Yes
   Frame=1106719   StationType=MinNumSta   MinNumSta=3   AddAtElmInt=Yes   AddAtPtLoad=Yes
   Frame=1106720   StationType=MinNumSta   MinNumSta=3   AddAtElmInt=Yes   AddAtPtLoad=Yes
   Frame=1106721   StationType=MinNumSta   MinNumSta=3   AddAtElmInt=Yes   AddAtPtLoad=Yes
   Frame=1106722   StationType=MinNumSta   MinNumSta=3   AddAtElmInt=Yes   AddAtPtLoad=Yes
   Frame=1106723   StationType=MinNumSta   MinNumSta=3   AddAtElmInt=Yes   AddAtPtLoad=Yes
   Frame=1106724   StationType=MinNumSta   MinNumSta=3   AddAtElmInt=Yes   AddAtPtLoad=Yes
   Frame=1106725   StationType=MinNumSta   MinNumSta=3   AddAtElmInt=Yes   AddAtPtLoad=Yes
   Frame=1106726   StationType=MinNumSta   MinNumSta=3   AddAtElmInt=Yes   AddAtPtLoad=Yes
   Frame=1106727   StationType=MinNumSta   MinNumSta=3   AddAtElmInt=Yes   AddAtPtLoad=Yes
   Frame=1106728   StationType=MinNumSta   MinNumSta=3   AddAtElmInt=Yes   AddAtPtLoad=Yes
   Frame=1106729   StationType=MinNumSta   MinNumSta=3   AddAtElmInt=Yes   AddAtPtLoad=Yes
   Frame=1106730   StationType=MinNumSta   MinNumSta=3   AddAtElmInt=Yes   AddAtPtLoad=Yes
   Frame=1106731   StationType=MinNumSta   MinNumSta=3   AddAtElmInt=Yes   AddAtPtLoad=Yes
   Frame=1106732   StationType=MinNumSta   MinNumSta=3   AddAtElmInt=Yes   AddAtPtLoad=Yes
   Frame=1106733   StationType=MinNumSta   MinNumSta=3   AddAtElmInt=Yes   AddAtPtLoad=Yes
   Frame=1106734   StationType=MinNumSta   MinNumSta=3   AddAtElmInt=Yes   AddAtPtLoad=Yes
   Frame=1106735   StationType=MinNumSta   MinNumSta=3   AddAtElmInt=Yes   AddAtPtLoad=Yes
# ... 43 like lines cut
   Frame=1106779   StationType=MaxStaSpcg   MaxStaSpcg=0.5   AddAtElmInt=Yes   AddAtPtLoad=Yes
   Frame=1106780   StationType=MaxStaSpcg   MaxStaSpcg=0.5   AddAtElmInt=Yes   AddAtPtLoad=Yes
   Frame=1106781   StationType=MaxStaSpcg   MaxStaSpcg=0.5   AddAtElmInt=Yes   AddAtPtLoad=Yes
   Frame=1106782   StationType=MaxStaSpcg   MaxStaSpcg=0.5   AddAtElmInt=Yes   AddAtPtLoad=Yes
   Frame=1106783   StationType=MaxStaSpcg   MaxStaSpcg=0.5   AddAtElmInt=Yes   AddAtPtLoad=Yes
   Frame=1106784   StationType=MaxStaSpcg   MaxStaSpcg=0.5   AddAtElmInt=Yes   AddAtPtLoad=Yes
 
TABLE:  "FRAME SECTION ASSIGNMENTS"
   Frame=1106649   AutoSelect=N.A.   AnalSect=TB   MatProp=Default
   Frame=1106650   AutoSelect=N.A.   AnalSect=TB   MatProp=Default
   Frame=1106651   AutoSelect=N.A.   AnalSect=TB   MatProp=Default
   Frame=1106652   AutoSelect=N.A.   AnalSect=TB   MatProp=Default
   Frame=1106653   AutoSelect=N.A.   AnalSect=TB   MatProp=Default
   Frame=1106654   AutoSelect=N.A.   AnalSect=TB   MatProp=Default
   Frame=1106655   AutoSelect=N.A.   AnalSect=TB   MatProp=Default
   Frame=1106656   AutoSelect=N.A.   AnalSect=TB   MatProp=Default
   Frame=1106657   AutoSelect=N.A.   AnalSect=TB   MatProp=Default
   Frame=1106658   AutoSelect=N.A.   AnalSect=TB   MatProp=Default
   Frame=1106659   AutoSelect=N.A.   AnalSect=TB   MatProp=Default
   Frame=1106660   AutoSelect=N.A.   AnalSect=TB   MatProp=Default
   Frame=1106661   AutoSelect=N.A.   AnalSect=TB   MatProp=Default
   Frame=1106662   AutoSelect=N.A.   AnalSect=TB   MatProp=Default
   Frame=1106663   AutoSelect=N.A.   AnalSect=TB   MatProp=Default
   Frame=1106664   AutoSelect=N.A.   AnalSect=TB   MatProp=Default
   Frame=1106665   AutoSelect=N.A.   AnalSect=TB   MatProp=Default
   Frame=1106666   AutoSelect=N.A.   AnalSect=TB   MatProp=Default
   Frame=1106667   AutoSelect=N.A.   AnalSect=TB   MatProp=Default
   Frame=1106668   AutoSelect=N.A.   AnalSect=TB   MatProp=Default
# ... 15 like lines cut
   Frame=1106684   AutoSelect=N.A.   AnalSect=LB   MatProp=Default
   Frame=1106685   AutoSelect=N.A.   AnalSect=LB   MatProp=Default
   Frame=1106686   AutoSelect=N.A.   AnalSect=LB   MatProp=Default
   Frame=1106687   AutoSelect=N.A.   AnalSect=LB   MatProp=Default
   Frame=1106688   AutoSelect=N.A.   AnalSect=LB   MatProp=Default
   Frame=1106689   AutoSelect=N.A.   AnalSect=LB   MatProp=Default
   Frame=1106690   AutoSelect=N.A.   AnalSect=LB   MatProp=Default
   Frame=1106691   AutoSelect=N.A.   AnalSect=LB   MatProp=Default
   Frame=1106692   AutoSelect=N.A.   AnalSect=LB   MatProp=Default
   Frame=1106693   AutoSelect=N.A.   AnalSect=LB   MatProp=Default
   Frame=1106694   AutoSelect=N.A.   AnalSect=LB   MatProp=Default
   Frame=1106695   AutoSelect=N.A.   AnalSect=LB   MatProp=Default
   Frame=1106696   AutoSelect=N.A.   AnalSect=LB   MatProp=Default
   Frame=1106697   AutoSelect=N.A.   AnalSect=LB   MatProp=Default
   Frame=1106698   AutoSelect=N.A.   AnalSect=LB   MatProp=Default
   Frame=1106699   AutoSelect=N.A.   AnalSect=LB   MatProp=Default
   Frame=1106700   AutoSelect=N.A.   AnalSect=LB   MatProp=Default
   Frame=1106701   AutoSelect=N.A.   AnalSect=LB   MatProp=Default
   Frame=1106702   AutoSelect=N.A.   AnalSect=LB   MatProp=Default
   Frame=1106703   AutoSelect=N.A.   AnalSect=LB   MatProp=Default
# ... 12 like lines cut
   Frame=1106716   AutoSelect=N.A.   AnalSect=EB   MatProp=Default
   Frame=1106717   AutoSelect=N.A.   AnalSect=Piles   MatProp=Default
   Frame=1106718   AutoSelect=N.A.   AnalSect=Piles   MatProp=Default
   Frame=1106719   AutoSelect=N.A.   AnalSect=EB   MatProp=Default
   Frame=1106720   AutoSelect=N.A.   AnalSect=Piles   MatProp=Default
   Frame=1106721   AutoSelect=N.A.   AnalSect=Piles   MatProp=Default
   Frame=1106722   AutoSelect=N.A.   AnalSect=EB   MatProp=Default
   Frame=1106723   AutoSelect=N.A.   AnalSect=Piles   MatProp=Default
   Frame=1106724   AutoSelect=N.A.   AnalSect=Piles   MatProp=Default
   Frame=1106725   AutoSelect=N.A.   AnalSect=EB   MatProp=Default
   Frame=1106726   AutoSelect=N.A.   AnalSect=Piles   MatProp=Default
   Frame=1106727   AutoSelect=N.A.   AnalSect=Piles   MatProp=Default
   Frame=1106728   AutoSelect=N.A.   AnalSect=EB   MatProp=Default
   Frame=1106729   AutoSelect=N.A.   AnalSect=Piles   MatProp=Default
   Frame=1106730   AutoSelect=N.A.   AnalSect=Piles   MatProp=Default
   Frame=1106731   AutoSelect=N.A.   AnalSect=EB   MatProp=Default
   Frame=1106732   AutoSelect=N.A.   AnalSect=Piles   MatProp=Default
   Frame=1106733   AutoSelect=N.A.   AnalSect=Piles   MatProp=Default
   Frame=1106734   AutoSelect=N.A.   AnalSect=EB   MatProp=Default
   Frame=1106735   AutoSelect=N.A.   AnalSect=Piles   MatProp=Default
   Frame=1106736   AutoSelect=N.A.   AnalSect=Piles   MatProp=Default
   Frame=1106737   AutoSelect=N.A.   AnalSect=Piles   MatProp=Default
   Frame=1106738   AutoSelect=N.A.   AnalSect=Piles   MatProp=Default
   Frame=1106739   AutoSelect=N.A.   AnalSect=Piles   MatProp=Default
   Frame=1106740   AutoSelect=N.A.   AnalSect=Piles   MatProp=Default
   Frame=1106741   AutoSelect=N.A.   AnalSect=Piles   MatProp=Default
   Frame=1106742   AutoSelect=N.A.   AnalSect=Piles   MatProp=Default
   Frame=1106743   AutoSelect=N.A.   AnalSect=Piles   MatProp=Default
   Frame=1106744   AutoSelect=N.A.   AnalSect=Piles   MatProp=Default
   Frame=1106745   AutoSelect=N.A.   AnalSect=Piles   MatProp=Default
   Frame=1106746   AutoSelect=N.A.   AnalSect=Piles   MatProp=Default
   Frame=1106747   AutoSelect=N.A.   AnalSect=Piles   MatProp=Default
   Frame=1106748   AutoSelect=N.A.   AnalSect=Piles   MatProp=Default
   Frame=1106749   AutoSelect=N.A.   AnalSect=Piles   MatProp=Default
   Frame=1106750   AutoSelect=N.A.   AnalSect=Piles   MatProp=Default
   Frame=1106751   AutoSelect=N.A.   AnalSect=Piles   MatProp=Default
   Frame=1106752   AutoSelect=N.A.   AnalSect=Piles   MatProp=Default
   Frame=1106753   AutoSelect=N.A.   AnalSect=Piles   MatProp=Default
   Frame=1106754   AutoSelect=N.A.   AnalSect=Piles   MatProp=Default
# ... 24 like lines cut
   Frame=1106779   AutoSelect=N.A.   AnalSect=EB-1   MatProp=Default
   Frame=1106780   AutoSelect=N.A.   AnalSect=EB-1   MatProp=Default
   Frame=1106781   AutoSelect=N.A.   AnalSect=EB-1   MatProp=Default
   Frame=1106782   AutoSelect=N.A.   AnalSect=EB-1   MatProp=Default
   Frame=1106783   AutoSelect=N.A.   AnalSect=EB-1   MatProp=Default
   Frame=1106784   AutoSelect=N.A.   AnalSect=EB-1   MatProp=Default
 
TABLE:  "FRAME SECTION PROPERTIES 01 - GENERAL"
   SectionName=EB   Material=BTCT   Shape=Rectangular   t3=1.4   t2=2   Area=2.8   TorsConst=1.03873877613333   I33=0.457333333333333   I22=0.933333333333333   I23=0   AS2=2.33333333333333   AS3=2.33333333333333   S33Top=0.653333333333333 _
        S33Bot=0.653333333333333   S22Left=0.933333333333333   S22Right=0.933333333333333   Z33=0.98   Z22=1.4   R33=0.404145188432738   R22=0.577350269189626   CGOffset3=0   CGOffset2=0   EccV2=0   EccV3=0   Cw=0   Color=Magenta _
        FromFile=No   AMod=1   A2Mod=1   A3Mod=1   JMod=1   I2Mod=1   I3Mod=1   MMod=1   WMod=1
   SectionName=EB-1   Material=BTCT   Shape=Rectangular   t3=2   t2=2   Area=4   TorsConst=2.25333333333333   I33=1.33333333333333   I22=1.33333333333333   I23=0   AS2=3.33333333333333   AS3=3.33333333333333   S33Top=1.33333333333333 _
        S33Bot=1.33333333333333   S22Left=1.33333333333333   S22Right=1.33333333333333   Z33=2   Z22=2   R33=0.577350269189626   R22=0.577350269189626   CGOffset3=0   CGOffset2=0   EccV2=0   EccV3=0   Cw=0   Color=Yellow   FromFile=No _
        AMod=1   A2Mod=1   A3Mod=1   JMod=1   I2Mod=1   I3Mod=1   MMod=1   WMod=1
   SectionName=LB   Material=BTCT   Shape=Rectangular   t3=1.4   t2=2   Area=2.8   TorsConst=1.03873877613333   I33=0.457333333333333   I22=0.933333333333333   I23=0   AS2=2.33333333333333   AS3=2.33333333333333   S33Top=0.653333333333333 _
        S33Bot=0.653333333333333   S22Left=0.933333333333333   S22Right=0.933333333333333   Z33=0.98   Z22=1.4   R33=0.404145188432738   R22=0.577350269189626   CGOffset3=0   CGOffset2=0   EccV2=0   EccV3=0   Cw=0   Color=Red   FromFile=No _
        AMod=1   A2Mod=1   A3Mod=1   JMod=1   I2Mod=1   I3Mod=1   MMod=1   WMod=1
   SectionName=Piles   Material=BTCTCOC   Shape=Pipe   t3=1.2   tw=0.15   Area=0.494800842940393   TorsConst=0.139162737076985   I33=0.0695813685384927   I22=0.0695813685384927   I23=0   AS2=0.250743670408983   AS3=0.250743670408983 _
        S33Top=0.115968947564155   S33Bot=0.115968947564155   S22Left=0.115968947564155   S22Right=0.115968947564155   Z33=0.1665   Z22=0.1665   R33=0.375   R22=0.375   CGOffset3=0   CGOffset2=0   EccV2=0   EccV3=0   Cw=0   Color=Gray8Dark _
        FromFile=No   AMod=1   A2Mod=1   A3Mod=1   JMod=1   I2Mod=1   I3Mod=1   MMod=1   WMod=1
   SectionName=TB   Material=BTCT   Shape=Rectangular   t3=1.4   t2=2   Area=2.8   TorsConst=1.03873877613333   I33=0.457333333333333   I22=0.933333333333333   I23=0   AS2=2.33333333333333   AS3=2.33333333333333   S33Top=0.653333333333333 _
        S33Bot=0.653333333333333   S22Left=0.933333333333333   S22Right=0.933333333333333   Z33=0.98   Z22=1.4   R33=0.404145188432738   R22=0.577350269189626   CGOffset3=0   CGOffset2=0   EccV2=0   EccV3=0   Cw=0   Color=Cyan   FromFile=No _
        AMod=1   A2Mod=1   A3Mod=1   JMod=1   I2Mod=1   I3Mod=1   MMod=1   WMod=1
 
TABLE:  "FRAME SECTION PROPERTIES 02 - CONCRETE COLUMN"
   SectionName=EB   RebarMatL=A706   RebarMatC=A706   ReinfConfig=Rectangular   LatReinf=Ties   Cover=0.05   NumBars3Dir=2   NumBars2Dir=2   BarSizeL=12d   BarSizeC=10d   SpacingC=0.1   NumCBars2=2   NumCBars3=2   ReinfType=Design
   SectionName=EB-1   RebarMatL=A706   RebarMatC=A706   ReinfConfig=Rectangular   LatReinf=Ties   Cover=0.05   NumBars3Dir=2   NumBars2Dir=2   BarSizeL=12d   BarSizeC=10d   SpacingC=0.1   NumCBars2=2   NumCBars3=2   ReinfType=Design
   SectionName=LB   RebarMatL=A706   RebarMatC=A706   ReinfConfig=Rectangular   LatReinf=Ties   Cover=0.05   NumBars3Dir=2   NumBars2Dir=2   BarSizeL=12d   BarSizeC=10d   SpacingC=0.1   NumCBars2=2   NumCBars3=2   ReinfType=Design
   SectionName=TB   RebarMatL=A706   RebarMatC=A706   ReinfConfig=Rectangular   LatReinf=Ties   Cover=0.05   NumBars3Dir=2   NumBars2Dir=2   BarSizeL=12d   BarSizeC=10d   SpacingC=0.1   NumCBars2=2   NumCBars3=2   ReinfType=Design
 
TABLE:  "FRAME SECTION PROPERTIES 13 - TIME DEPENDENT"
   SectionName=EB   TypeSize=Auto   AutoSFSize=1
   SectionName=EB-1   TypeSize=Auto   AutoSFSize=1
   SectionName=LB   TypeSize=Auto   AutoSFSize=1
   SectionName=Piles   TypeSize=Auto   AutoSFSize=1
   SectionName=TB   TypeSize=Auto   AutoSFSize=1
 
TABLE:  "FUNCTION - PLOT FUNCTIONS"
   PlotFunc="Input Energy"   Type=Energy   Component=Input   Mode=All
 
TABLE:  "FUNCTION - POWER SPECTRAL DENSITY - USER"
   Name=UNIFPSD   Frequency=0   Value=1
   Name=UNIFPSD   Frequency=1   Value=1
 
TABLE:  "FUNCTION - RESPONSE SPECTRUM - USER"
   Name=UNIFRS   Period=0   Accel=1   FuncDamp=0.05
   Name=UNIFRS   Period=1   Accel=1
 
TABLE:  "FUNCTION - STEADY STATE - USER"
   Name=UNIFSS   Frequency=0   Value=1
   Name=UNIFSS   Frequency=1   Value=1
 
TABLE:  "FUNCTION - TIME HISTORY - USER"
   Name=RAMPTH   Time=0   Value=0
   Name=RAMPTH   Time=1   Value=1
   Name=RAMPTH   Time=4   Value=1
   Name=UNIFTH   Time=0   Value=1
   Name=UNIFTH   Time=1   Value=1
 
TABLE:  "GRID LINES"
   CoordSys=GLOBAL   AxisDir=X   GridID=A   XRYZCoord=-10   LineType=Primary   LineColor=Gray8Dark   Visible=Yes   BubbleLoc=End   AllVisible=Yes   BubbleSize=0.9375
   CoordSys=GLOBAL   AxisDir=X   GridID=B   XRYZCoord=-9   LineType=Primary   LineColor=Gray8Dark   Visible=Yes   BubbleLoc=End
   CoordSys=GLOBAL   AxisDir=X   GridID=C   XRYZCoord=-4.5   LineType=Primary   LineColor=Gray8Dark   Visible=Yes   BubbleLoc=End
   CoordSys=GLOBAL   AxisDir=X   GridID=D   XRYZCoord=0   LineType=Primary   LineColor=Gray8Dark   Visible=Yes   BubbleLoc=End
   CoordSys=GLOBAL   AxisDir=X   GridID=E   XRYZCoord=4.5   LineType=Primary   LineColor=Gray8Dark   Visible=Yes   BubbleLoc=End
   CoordSys=GLOBAL   AxisDir=X   GridID=F   XRYZCoord=9   LineType=Primary   LineColor=Gray8Dark   Visible=Yes   BubbleLoc=End
   CoordSys=GLOBAL   AxisDir=X   GridID=G   XRYZCoord=10   LineType=Primary   LineColor=Gray8Dark   Visible=Yes   BubbleLoc=End
   CoordSys=GLOBAL   AxisDir=Y   GridID=1   XRYZCoord=-5.2   LineType=Primary   LineColor=Gray8Dark   Visible=Yes   BubbleLoc=Start
   CoordSys=GLOBAL   AxisDir=Y   GridID=2   XRYZCoord=-4.2   LineType=Primary   LineColor=Gray8Dark   Visible=Yes   BubbleLoc=Start
   CoordSys=GLOBAL   AxisDir=Y   GridID=3   XRYZCoord=0   LineType=Primary   LineColor=Gray8Dark   Visible=Yes   BubbleLoc=Start
   CoordSys=GLOBAL   AxisDir=Y   GridID=4   XRYZCoord=4.2   LineType=Primary   LineColor=Gray8Dark   Visible=Yes   BubbleLoc=Start
   CoordSys=GLOBAL   AxisDir=Y   GridID=5   XRYZCoord=4.8   LineType=Primary   LineColor=Gray8Dark   Visible=Yes   BubbleLoc=Start
   CoordSys=GLOBAL   AxisDir=Z   GridID=Z1   XRYZCoord=0   LineType=Primary   LineColor=Gray8Dark   Visible=Yes   BubbleLoc=End
   CoordSys=GLOBAL   AxisDir=Z   GridID=Z2   XRYZCoord=13   LineType=Primary   LineColor=Gray8Dark   Visible=Yes   BubbleLoc=End
 
TABLE:  "GROUPS 1 - DEFINITIONS"
   GroupName=ALL   Selection=Yes   SectionCut=Yes   Steel=Yes   Concrete=Yes   Aluminum=Yes   ColdFormed=Yes   Stage=Yes   Bridge=Yes   AutoSeismic=No   AutoWind=No   SelDesSteel=No   SelDesAlum=No   SelDesCold=No   MassWeight=Yes   Color=Red
   GroupName=Pile   Selection=Yes   SectionCut=Yes   Steel=Yes   Concrete=Yes   Aluminum=Yes   ColdFormed=Yes   Stage=Yes   Bridge=Yes   AutoSeismic=No   AutoWind=No   SelDesSteel=No   SelDesAlum=No   SelDesCold=No   MassWeight=Yes   Color=Gray8Dark
   GroupName=DN   Selection=Yes   SectionCut=Yes   Steel=Yes   Concrete=Yes   Aluminum=Yes   ColdFormed=Yes   Stage=Yes   Bridge=Yes   AutoSeismic=No   AutoWind=No   SelDesSteel=No   SelDesAlum=No   SelDesCold=No   MassWeight=Yes   Color=Yellow
   GroupName=Pile_Toe   Selection=Yes   SectionCut=Yes   Steel=Yes   Concrete=Yes   Aluminum=Yes   ColdFormed=Yes   Stage=Yes   Bridge=Yes   AutoSeismic=No   AutoWind=No   SelDesSteel=No   SelDesAlum=No   SelDesCold=No   MassWeight=Yes   Color=Green
   GroupName=Pile_Bend   Selection=Yes   SectionCut=Yes   Steel=Yes   Concrete=Yes   Aluminum=Yes   ColdFormed=Yes   Stage=Yes   Bridge=Yes   AutoSeismic=No   AutoWind=No   SelDesSteel=No   SelDesAlum=No   SelDesCold=No   MassWeight=Yes   Color=Cyan
   GroupName=Beam   Selection=Yes   SectionCut=Yes   Steel=Yes   Concrete=Yes   Aluminum=Yes   ColdFormed=Yes   Stage=Yes   Bridge=Yes   AutoSeismic=No   AutoWind=No   SelDesSteel=No   SelDesAlum=No   SelDesCold=No   MassWeight=Yes   Color=Blue
   GroupName=Piles   Selection=Yes   SectionCut=Yes   Steel=Yes   Concrete=Yes   Aluminum=Yes   ColdFormed=Yes   Stage=Yes   Bridge=Yes   AutoSeismic=No   AutoWind=No   SelDesSteel=No   SelDesAlum=No   SelDesCold=No   MassWeight=Yes   Color=Cyan
   GroupName=Beams   Selection=Yes   SectionCut=Yes   Steel=Yes   Concrete=Yes   Aluminum=Yes   ColdFormed=Yes   Stage=Yes   Bridge=Yes   AutoSeismic=No   AutoWind=No   SelDesSteel=No   SelDesAlum=No   SelDesCold=No   MassWeight=Yes   Color=Red
 
TABLE:  "GROUPS 2 - ASSIGNMENTS"
 
TABLE:  "JOINT COORDINATES"
   Joint=953693   CoordSys=GLOBAL   CoordType=Cartesian   XorR=-9   Y=-5   Z=0   SpecialJt=No   GUID=402360ce-db65-4608-befb-6d9935f93f78
   Joint=953694   CoordSys=GLOBAL   CoordType=Cartesian   XorR=-9   Y=-4.5   Z=0   SpecialJt=No   GUID=d2b8925e-8812-4968-8048-de9cd0cbc594
   Joint=953695   CoordSys=GLOBAL   CoordType=Cartesian   XorR=-6   Y=-5   Z=0   SpecialJt=No   GUID=f9232e42-42f9-4c5b-a561-09c6be46aa63
   Joint=953696   CoordSys=GLOBAL   CoordType=Cartesian   XorR=-6   Y=-4.5   Z=0   SpecialJt=No   GUID=3c214f71-8aa1-491c-b3f2-e8d6ec3ef8e1
   Joint=953697   CoordSys=GLOBAL   CoordType=Cartesian   XorR=-3   Y=-5   Z=0   SpecialJt=No   GUID=9b17eaee-b8d1-446a-b481-9ec8278fb58a
   Joint=953698   CoordSys=GLOBAL   CoordType=Cartesian   XorR=-3   Y=-4.5   Z=0   SpecialJt=No   GUID=912af745-2cb6-4637-8f68-430de91ba4a4
   Joint=953699   CoordSys=GLOBAL   CoordType=Cartesian   XorR=0   Y=-5   Z=0   SpecialJt=No   GUID=fbd9857c-c095-409f-a6d0-b8b8174e2642
   Joint=953700   CoordSys=GLOBAL   CoordType=Cartesian   XorR=0   Y=-4.5   Z=0   SpecialJt=No   GUID=c8838aae-3b4d-43f9-b688-e2d08fa0fa48
   Joint=953701   CoordSys=GLOBAL   CoordType=Cartesian   XorR=3   Y=-5   Z=0   SpecialJt=No   GUID=09fd50a8-8980-49c3-9157-55d7949d3402
   Joint=953702   CoordSys=GLOBAL   CoordType=Cartesian   XorR=3   Y=-4.5   Z=0   SpecialJt=No   GUID=c74beb25-6527-4f84-96e8-a4396111499d
   Joint=953703   CoordSys=GLOBAL   CoordType=Cartesian   XorR=6   Y=-5   Z=0   SpecialJt=No   GUID=d9319c7a-c8ee-4656-a01c-a928ad83a111
   Joint=953704   CoordSys=GLOBAL   CoordType=Cartesian   XorR=6   Y=-4.5   Z=0   SpecialJt=No   GUID=ef6e58b5-4d1b-44af-8109-b92bceae412e
   Joint=953705   CoordSys=GLOBAL   CoordType=Cartesian   XorR=9   Y=-5   Z=0   SpecialJt=No   GUID=2fc4c903-66c6-4997-8518-a9b6b39d4eeb
   Joint=953706   CoordSys=GLOBAL   CoordType=Cartesian   XorR=9   Y=-4.5   Z=0   SpecialJt=No   GUID=f2d3511a-cf56-4ff8-8426-a69c4d5a1efa
   Joint=953707   CoordSys=GLOBAL   CoordType=Cartesian   XorR=-9   Y=-1.5   Z=0   SpecialJt=No   GUID=609ca248-953e-4977-b62f-b2ccb1a9f5a6
   Joint=953708   CoordSys=GLOBAL   CoordType=Cartesian   XorR=-6   Y=-1.5   Z=0   SpecialJt=No   GUID=b053454d-cf0d-4599-a01e-69e593b44568
   Joint=953709   CoordSys=GLOBAL   CoordType=Cartesian   XorR=-3   Y=-1.5   Z=0   SpecialJt=No   GUID=a252014b-327f-48ea-915b-dd2077ab0d19
   Joint=953710   CoordSys=GLOBAL   CoordType=Cartesian   XorR=0   Y=-1.5   Z=0   SpecialJt=No   GUID=a7fca40d-2b96-4b9e-8d7c-83afdebcf992
   Joint=953711   CoordSys=GLOBAL   CoordType=Cartesian   XorR=3   Y=-1.5   Z=0   SpecialJt=No   GUID=78d65f04-79f5-48cd-beaa-137ee3163870
   Joint=953712   CoordSys=GLOBAL   CoordType=Cartesian   XorR=6   Y=-1.5   Z=0   SpecialJt=No   GUID=b3d70dc3-c577-4e96-9ba9-ae2df4b389fb
   Joint=953713   CoordSys=GLOBAL   CoordType=Cartesian   XorR=9   Y=-1.5   Z=0   SpecialJt=No   GUID=49893c32-f135-43b9-8775-f9a59a1658c0
   Joint=953714   CoordSys=GLOBAL   CoordType=Cartesian   XorR=-9   Y=1.5   Z=0   SpecialJt=No   GUID=b20448ed-d0dc-4c7a-951c-c680b7329b9b
   Joint=953715   CoordSys=GLOBAL   CoordType=Cartesian   XorR=-6   Y=1.5   Z=0   SpecialJt=No   GUID=92edb9f1-dc0f-405e-85b1-b0d6662a356f
   Joint=953716   CoordSys=GLOBAL   CoordType=Cartesian   XorR=-3   Y=1.5   Z=0   SpecialJt=No   GUID=3b4ca9f2-9dd6-4eff-b28a-1da4c510f7ef
   Joint=953717   CoordSys=GLOBAL   CoordType=Cartesian   XorR=0   Y=1.5   Z=0   SpecialJt=No   GUID=da8f0732-7ebf-47d0-a78b-d4993cdfb0b8
   Joint=953718   CoordSys=GLOBAL   CoordType=Cartesian   XorR=3   Y=1.5   Z=0   SpecialJt=No   GUID=8b68207a-f63c-4b71-8d2f-155f76f158d4
   Joint=953719   CoordSys=GLOBAL   CoordType=Cartesian   XorR=6   Y=1.5   Z=0   SpecialJt=No   GUID=c9fb1af9-be97-43d6-a0db-dedac1efd4b8
   Joint=953720   CoordSys=GLOBAL   CoordType=Cartesian   XorR=9   Y=1.5   Z=0   SpecialJt=No   GUID=7aca31fb-36b4-4f80-bb4b-233aa40be2d9
   Joint=953721   CoordSys=GLOBAL   CoordType=Cartesian   XorR=-9   Y=4.5   Z=0   SpecialJt=No   GUID=7e4ae81a-c604-433a-9949-961183be995a
   Joint=953722   CoordSys=GLOBAL   CoordType=Cartesian   XorR=-6   Y=4.5   Z=0   SpecialJt=No   GUID=2547fe47-3469-49ce-88da-322329fc39de
   Joint=953723   CoordSys=GLOBAL   CoordType=Cartesian   XorR=-3   Y=4.5   Z=0   SpecialJt=No   GUID=c3068793-f625-4cb2-929b-6cb749775bd8
   Joint=953724   CoordSys=GLOBAL   CoordType=Cartesian   XorR=0   Y=4.5   Z=0   SpecialJt=No   GUID=c75df437-5144-4d3e-b0d1-272a5fcf1ca2
   Joint=953725   CoordSys=GLOBAL   CoordType=Cartesian   XorR=3   Y=4.5   Z=0   SpecialJt=No   GUID=37ad60f2-d2a4-4525-a856-dd4a565b5c6b
   Joint=953726   CoordSys=GLOBAL   CoordType=Cartesian   XorR=6   Y=4.5   Z=0   SpecialJt=No   GUID=ffdf9245-f19b-4f69-ad49-8909f2bc76fa
   Joint=953727   CoordSys=GLOBAL   CoordType=Cartesian   XorR=9   Y=4.5   Z=0   SpecialJt=No   GUID=6b0de128-51b3-4f8c-981a-ce48e010891c
   Joint=953728   CoordSys=GLOBAL   CoordType=Cartesian   XorR=-9   Y=5   Z=0   SpecialJt=No   GUID=3c0edc3d-d794-44cb-98c6-9c7c38b14c62
   Joint=953729   CoordSys=GLOBAL   CoordType=Cartesian   XorR=-6   Y=5   Z=0   SpecialJt=No   GUID=45f5665c-1936-4f62-b9f2-6bd72717cbcf
   Joint=953730   CoordSys=GLOBAL   CoordType=Cartesian   XorR=-3   Y=5   Z=0   SpecialJt=No   GUID=7a13bf6e-c1ff-40ab-a9f7-cc8d73ed571a
   Joint=953731   CoordSys=GLOBAL   CoordType=Cartesian   XorR=0   Y=5   Z=0   SpecialJt=No   GUID=c3632f3a-2b27-42f8-a177-22bb2a40285f
   Joint=953732   CoordSys=GLOBAL   CoordType=Cartesian   XorR=3   Y=5   Z=0   SpecialJt=No   GUID=83c0f935-66b0-450c-b436-1963e7c8c9a3
   Joint=953733   CoordSys=GLOBAL   CoordType=Cartesian   XorR=6   Y=5   Z=0   SpecialJt=No   GUID=1bf2b3bd-85f3-4a6a-a5d7-2e85ef8eff7b
   Joint=953734   CoordSys=GLOBAL   CoordType=Cartesian   XorR=9   Y=5   Z=0   SpecialJt=No   GUID=1831bec0-345f-4c00-ad5c-eb69c89c5caa
   Joint=953735   CoordSys=GLOBAL   CoordType=Cartesian   XorR=-10   Y=-4.5   Z=0   SpecialJt=No   GUID=49a07bf6-5c52-4625-ab66-8159fa837ba8
   Joint=953736   CoordSys=GLOBAL   CoordType=Cartesian   XorR=-10   Y=-1.5   Z=0   SpecialJt=No   GUID=ef6311f4-d556-4877-a80b-001cf4557311
   Joint=953737   CoordSys=GLOBAL   CoordType=Cartesian   XorR=-10   Y=1.5   Z=0   SpecialJt=No   GUID=fbe888e9-d477-486c-ac1c-56c06a6879da
   Joint=953738   CoordSys=GLOBAL   CoordType=Cartesian   XorR=-10   Y=4.5   Z=0   SpecialJt=No   GUID=30be7575-7c44-4758-b088-fda94147920a
   Joint=953739   CoordSys=GLOBAL   CoordType=Cartesian   XorR=10   Y=-4.5   Z=0   SpecialJt=No   GUID=5a1ea146-d68d-47d9-8dd5-14d460f98e28
   Joint=953740   CoordSys=GLOBAL   CoordType=Cartesian   XorR=10   Y=-1.5   Z=0   SpecialJt=No   GUID=d10ec8ad-f758-49bc-94a8-0c0d683b80da
   Joint=953741   CoordSys=GLOBAL   CoordType=Cartesian   XorR=10   Y=1.5   Z=0   SpecialJt=No   GUID=c984bd0c-2b3c-4148-ae08-b0011a73abc4
   Joint=953742   CoordSys=GLOBAL   CoordType=Cartesian   XorR=10   Y=4.5   Z=0   SpecialJt=No   GUID=f013b1c7-6a77-4779-9053-31f72267df86
   Joint=953743   CoordSys=GLOBAL   CoordType=Cartesian   XorR=-9   Y=-4.5   Z=-3   SpecialJt=No   GUID=bd53e459-3a62-4f31-adf3-648928708da8
   Joint=953744   CoordSys=GLOBAL   CoordType=Cartesian   XorR=-9   Y=-4.5   Z=-16.7344389692158   SpecialJt=No   GUID=e9f78a76-5ea4-44a3-b47b-f949b440113d
   Joint=953745   CoordSys=GLOBAL   CoordType=Cartesian   XorR=-9   Y=-4.5   Z=-16.8   SpecialJt=No   GUID=aa8ea7fd-d790-48a8-904d-ce7afddc736d
   Joint=953746   CoordSys=GLOBAL   CoordType=Cartesian   XorR=-6   Y=-4.5   Z=-3   SpecialJt=No   GUID=c1ee57e4-6b4a-4fc4-bd23-ef11330c4cfd
   Joint=953747   CoordSys=GLOBAL   CoordType=Cartesian   XorR=-6   Y=-4.5   Z=-16.7344389692158   SpecialJt=No   GUID=f7b1c523-eba4-47fa-b737-67bfd52a98ec
   Joint=953748   CoordSys=GLOBAL   CoordType=Cartesian   XorR=-6   Y=-4.5   Z=-16.8   SpecialJt=No   GUID=82504e32-0d26-4279-ae8c-4772874af6e6
   Joint=953749   CoordSys=GLOBAL   CoordType=Cartesian   XorR=-3   Y=-4.5   Z=-3   SpecialJt=No   GUID=7133f834-a5a0-4074-b360-21e463111508
   Joint=953750   CoordSys=GLOBAL   CoordType=Cartesian   XorR=-3   Y=-4.5   Z=-16.7344389692158   SpecialJt=No   GUID=74ce8e68-7725-49dd-ad79-2b573c624c77
   Joint=953751   CoordSys=GLOBAL   CoordType=Cartesian   XorR=-3   Y=-4.5   Z=-16.8   SpecialJt=No   GUID=bf6465b6-48b4-434c-9424-0f877b5aa16e
   Joint=953752   CoordSys=GLOBAL   CoordType=Cartesian   XorR=0   Y=-4.5   Z=-3   SpecialJt=No   GUID=07e43017-144c-4d52-b1fe-da367b778d33
   Joint=953753   CoordSys=GLOBAL   CoordType=Cartesian   XorR=0   Y=-4.5   Z=-16.7344389692158   SpecialJt=No   GUID=f7d69361-14b6-48f9-9f21-2b24919816bd
   Joint=953754   CoordSys=GLOBAL   CoordType=Cartesian   XorR=0   Y=-4.5   Z=-16.8   SpecialJt=No   GUID=5871a82d-9016-424f-869b-fec2986999a6
   Joint=953755   CoordSys=GLOBAL   CoordType=Cartesian   XorR=3   Y=-4.5   Z=-3   SpecialJt=No   GUID=f38b6cf9-3f1d-434f-91b5-9245aa6f26a7
   Joint=953756   CoordSys=GLOBAL   CoordType=Cartesian   XorR=3   Y=-4.5   Z=-16.7344389692158   SpecialJt=No   GUID=f76e1a6d-1f45-4689-adfa-45ce4d51bf5f
   Joint=953757   CoordSys=GLOBAL   CoordType=Cartesian   XorR=3   Y=-4.5   Z=-16.8   SpecialJt=No   GUID=d52a995e-6d77-44b6-8850-2be077373940
   Joint=953758   CoordSys=GLOBAL   CoordType=Cartesian   XorR=6   Y=-4.5   Z=-3   SpecialJt=No   GUID=e47ebc44-622e-4fcc-b362-9f11454ef787
   Joint=953759   CoordSys=GLOBAL   CoordType=Cartesian   XorR=6   Y=-4.5   Z=-16.7344389692158   SpecialJt=No   GUID=dfc955f6-46bc-44ed-b248-9ce7b5326da0
   Joint=953760   CoordSys=GLOBAL   CoordType=Cartesian   XorR=6   Y=-4.5   Z=-16.8   SpecialJt=No   GUID=69399a60-cb12-4165-a78e-c79f2f93bd1e
   Joint=953761   CoordSys=GLOBAL   CoordType=Cartesian   XorR=9   Y=-4.5   Z=-3   SpecialJt=No   GUID=5dd9a2b8-de10-456b-8148-48c82fc790c2
   Joint=953762   CoordSys=GLOBAL   CoordType=Cartesian   XorR=9   Y=-4.5   Z=-16.7344389692158   SpecialJt=No   GUID=b6027954-d2d6-4758-a836-eec4b075da94
   Joint=953763   CoordSys=GLOBAL   CoordType=Cartesian   XorR=9   Y=-4.5   Z=-16.8   SpecialJt=No   GUID=6d3c3ddc-5219-4b81-bc88-c6b50d005141
   Joint=953764   CoordSys=GLOBAL   CoordType=Cartesian   XorR=-9   Y=-1.5   Z=-16.7344389692158   SpecialJt=No   GUID=5c9c8b61-bac9-419e-94d0-649afa7e70da
   Joint=953765   CoordSys=GLOBAL   CoordType=Cartesian   XorR=-9   Y=-1.5   Z=-16.8   SpecialJt=No   GUID=3c08e1e7-e91f-4c9d-997c-49e9d4299292
   Joint=953766   CoordSys=GLOBAL   CoordType=Cartesian   XorR=-6   Y=-1.5   Z=-16.7344389692158   SpecialJt=No   GUID=74e5bc9b-25e3-4abb-8689-f3ecd5545cbd
   Joint=953767   CoordSys=GLOBAL   CoordType=Cartesian   XorR=-6   Y=-1.5   Z=-16.8   SpecialJt=No   GUID=fd07f9e7-0397-4dc9-a94a-ffcd5c998b30
   Joint=953768   CoordSys=GLOBAL   CoordType=Cartesian   XorR=-3   Y=-1.5   Z=-16.7344389692158   SpecialJt=No   GUID=9d1af0c6-338e-4849-97c7-f07f937ee0f7
   Joint=953769   CoordSys=GLOBAL   CoordType=Cartesian   XorR=-3   Y=-1.5   Z=-16.8   SpecialJt=No   GUID=23dcf8b5-52db-410f-95a8-2649cbe1a15c
   Joint=953770   CoordSys=GLOBAL   CoordType=Cartesian   XorR=0   Y=-1.5   Z=-16.7344389692158   SpecialJt=No   GUID=3f43cc99-37d7-43fc-8a62-2a95f8e7d799
   Joint=953771   CoordSys=GLOBAL   CoordType=Cartesian   XorR=0   Y=-1.5   Z=-16.8   SpecialJt=No   GUID=9d2f84c9-5033-4409-91e1-d697afe4d151
   Joint=953772   CoordSys=GLOBAL   CoordType=Cartesian   XorR=3   Y=-1.5   Z=-16.7344389692158   SpecialJt=No   GUID=02943a84-b8ef-4258-80d6-fd22cb6fbde9
   Joint=953773   CoordSys=GLOBAL   CoordType=Cartesian   XorR=3   Y=-1.5   Z=-16.8   SpecialJt=No   GUID=90ef07dd-f466-49ee-89c9-369b3ff94aae
   Joint=953774   CoordSys=GLOBAL   CoordType=Cartesian   XorR=6   Y=-1.5   Z=-16.7344389692158   SpecialJt=No   GUID=28910f86-541b-4f80-a482-850a1f818d68
   Joint=953775   CoordSys=GLOBAL   CoordType=Cartesian   XorR=6   Y=-1.5   Z=-16.8   SpecialJt=No   GUID=bc620916-e622-406d-95be-d68da43afa5a
   Joint=953776   CoordSys=GLOBAL   CoordType=Cartesian   XorR=9   Y=-1.5   Z=-16.7344389692158   SpecialJt=No   GUID=56464533-36c2-497c-9a7e-9c411f553315
   Joint=953777   CoordSys=GLOBAL   CoordType=Cartesian   XorR=9   Y=-1.5   Z=-16.8   SpecialJt=No   GUID=180efe70-fe06-4505-8a09-a01e963e42ac
   Joint=953778   CoordSys=GLOBAL   CoordType=Cartesian   XorR=-9   Y=1.5   Z=-16.7344389692158   SpecialJt=No   GUID=a57711c2-0974-4ab8-8200-16eed597807a
   Joint=953779   CoordSys=GLOBAL   CoordType=Cartesian   XorR=-9   Y=1.5   Z=-16.8   SpecialJt=No   GUID=d9f07742-0a91-425c-9aeb-35b381e3b0c5
   Joint=953780   CoordSys=GLOBAL   CoordType=Cartesian   XorR=-6   Y=1.5   Z=-16.7344389692158   SpecialJt=No   GUID=10864069-a5f3-41dd-a345-0e06c42d46f4
   Joint=953781   CoordSys=GLOBAL   CoordType=Cartesian   XorR=-6   Y=1.5   Z=-16.8   SpecialJt=No   GUID=da74ff2a-39c9-481e-be2e-863e3efeec7c
   Joint=953782   CoordSys=GLOBAL   CoordType=Cartesian   XorR=-3   Y=1.5   Z=-16.7344389692158   SpecialJt=No   GUID=9a0e70ae-32df-402f-bb24-a689f255d93b
   Joint=953783   CoordSys=GLOBAL   CoordType=Cartesian   XorR=-3   Y=1.5   Z=-16.8   SpecialJt=No   GUID=301e8fb6-4d5e-4540-bff4-2d1237097a60
   Joint=953784   CoordSys=GLOBAL   CoordType=Cartesian   XorR=0   Y=1.5   Z=-16.7344389692158   SpecialJt=No   GUID=a4978e1a-c7b3-48ab-8ee5-9bbed9873ab6
   Joint=953785   CoordSys=GLOBAL   CoordType=Cartesian   XorR=0   Y=1.5   Z=-16.8   SpecialJt=No   GUID=727400cc-9529-490a-b9e4-5142e228383b
   Joint=953786   CoordSys=GLOBAL   CoordType=Cartesian   XorR=3   Y=1.5   Z=-16.7344389692158   SpecialJt=No   GUID=342392ed-d987-444b-af3d-4bd2fcbd5012
   Joint=953787   CoordSys=GLOBAL   CoordType=Cartesian   XorR=3   Y=1.5   Z=-16.8   SpecialJt=No   GUID=b1570bf8-ff44-433b-81e1-fee2885ab2c3
   Joint=953788   CoordSys=GLOBAL   CoordType=Cartesian   XorR=6   Y=1.5   Z=-16.7344389692158   SpecialJt=No   GUID=fa5b1b45-0e9a-47ca-95ca-ab72640d3090
   Joint=953789   CoordSys=GLOBAL   CoordType=Cartesian   XorR=6   Y=1.5   Z=-16.8   SpecialJt=No   GUID=d5a6e65c-cf46-4f8a-a39e-caf2c4bcf792
   Joint=953790   CoordSys=GLOBAL   CoordType=Cartesian   XorR=9   Y=1.5   Z=-16.7344389692158   SpecialJt=No   GUID=c06824f9-d165-4b5a-94ef-c887ddc42c33
   Joint=953791   CoordSys=GLOBAL   CoordType=Cartesian   XorR=9   Y=1.5   Z=-16.8   SpecialJt=No   GUID=670f3bd5-382f-4f5d-8c05-b88bd7c7c325
   Joint=953792   CoordSys=GLOBAL   CoordType=Cartesian   XorR=-9   Y=4.5   Z=-16.7344389692158   SpecialJt=No   GUID=12ce7c4d-6e38-4af0-8527-7892a883b90d
   Joint=953793   CoordSys=GLOBAL   CoordType=Cartesian   XorR=-9   Y=4.5   Z=-16.8   SpecialJt=No   GUID=4aba588e-d363-4903-994d-e25a7a4c1983
   Joint=953794   CoordSys=GLOBAL   CoordType=Cartesian   XorR=-6   Y=4.5   Z=-16.7344389692158   SpecialJt=No   GUID=0dd920a8-4312-4f60-beaf-bd9b68e5562e
   Joint=953795   CoordSys=GLOBAL   CoordType=Cartesian   XorR=-6   Y=4.5   Z=-16.8   SpecialJt=No   GUID=41993712-e239-4133-85d4-25952a008a53
   Joint=953796   CoordSys=GLOBAL   CoordType=Cartesian   XorR=-3   Y=4.5   Z=-16.7344389692158   SpecialJt=No   GUID=1343cb80-85b2-4653-9866-0a6cbf2df51b
   Joint=953797   CoordSys=GLOBAL   CoordType=Cartesian   XorR=-3   Y=4.5   Z=-16.8   SpecialJt=No   GUID=f6d26276-6345-489f-9bc3-d3030477daa2
   Joint=953798   CoordSys=GLOBAL   CoordType=Cartesian   XorR=0   Y=4.5   Z=-16.7344389692158   SpecialJt=No   GUID=c965e44c-c975-4af0-9aa3-15792d7ea0f3
   Joint=953799   CoordSys=GLOBAL   CoordType=Cartesian   XorR=0   Y=4.5   Z=-16.8   SpecialJt=No   GUID=04b6b39f-20b6-426c-a444-fb2c6d53062d
   Joint=953800   CoordSys=GLOBAL   CoordType=Cartesian   XorR=3   Y=4.5   Z=-16.7344389692158   SpecialJt=No   GUID=784fb575-904d-4823-9c84-699609804994
   Joint=953801   CoordSys=GLOBAL   CoordType=Cartesian   XorR=3   Y=4.5   Z=-16.8   SpecialJt=No   GUID=1f8db70c-646d-41d6-89f4-253022cc3e48
   Joint=953802   CoordSys=GLOBAL   CoordType=Cartesian   XorR=6   Y=4.5   Z=-16.7344389692158   SpecialJt=No   GUID=c4628c64-6d90-4d5e-8c20-3be0f2478bf6
   Joint=953803   CoordSys=GLOBAL   CoordType=Cartesian   XorR=6   Y=4.5   Z=-16.8   SpecialJt=No   GUID=c923ed98-7932-4b0d-a765-8ce656ed0b5a
   Joint=953804   CoordSys=GLOBAL   CoordType=Cartesian   XorR=9   Y=4.5   Z=-16.7344389692158   SpecialJt=No   GUID=71c154c5-bbfd-4d19-8a01-ed5516585c59
   Joint=953805   CoordSys=GLOBAL   CoordType=Cartesian   XorR=9   Y=4.5   Z=-16.8   SpecialJt=No   GUID=db347102-b960-4a3a-9df9-bbcad96558e6
   Joint=953806   CoordSys=GLOBAL   CoordType=Cartesian   XorR=-10   Y=-5   Z=0   SpecialJt=No   GUID=4cd25b4c-1351-4e5e-98d4-1e52912b6566
   Joint=953807   CoordSys=GLOBAL   CoordType=Cartesian   XorR=10   Y=-5   Z=0   SpecialJt=No   GUID=5e41beec-0eb2-4f13-955f-d9b5997a7978
   Joint=953808   CoordSys=GLOBAL   CoordType=Cartesian   XorR=-10   Y=5   Z=0   SpecialJt=No   GUID=c6e56ea8-1f08-4e72-ae98-58efd746ab69
   Joint=953809   CoordSys=GLOBAL   CoordType=Cartesian   XorR=10   Y=5   Z=0   SpecialJt=No   GUID=c8d1573e-f8b2-4254-a321-a8d994cbf605
 
TABLE:  "JOINT PATTERN DEFINITIONS"
   Pattern=Default
 
TABLE:  "JOINT RESTRAINT ASSIGNMENTS"
   Joint=953744   U1=Yes   U2=Yes   U3=No   R1=Yes   R2=Yes   R3=Yes
   Joint=953745   U1=No   U2=No   U3=Yes   R1=No   R2=No   R3=No
   Joint=953747   U1=Yes   U2=Yes   U3=No   R1=Yes   R2=Yes   R3=Yes
   Joint=953748   U1=No   U2=No   U3=Yes   R1=No   R2=No   R3=No
   Joint=953750   U1=Yes   U2=Yes   U3=No   R1=Yes   R2=Yes   R3=Yes
   Joint=953751   U1=No   U2=No   U3=Yes   R1=No   R2=No   R3=No
   Joint=953753   U1=Yes   U2=Yes   U3=No   R1=Yes   R2=Yes   R3=Yes
   Joint=953754   U1=No   U2=No   U3=Yes   R1=No   R2=No   R3=No
   Joint=953756   U1=Yes   U2=Yes   U3=No   R1=Yes   R2=Yes   R3=Yes
   Joint=953757   U1=No   U2=No   U3=Yes   R1=No   R2=No   R3=No
   Joint=953759   U1=Yes   U2=Yes   U3=No   R1=Yes   R2=Yes   R3=Yes
   Joint=953760   U1=No   U2=No   U3=Yes   R1=No   R2=No   R3=No
   Joint=953762   U1=Yes   U2=Yes   U3=No   R1=Yes   R2=Yes   R3=Yes
   Joint=953763   U1=No   U2=No   U3=Yes   R1=No   R2=No   R3=No
   Joint=953764   U1=Yes   U2=Yes   U3=No   R1=Yes   R2=Yes   R3=Yes
   Joint=953765   U1=No   U2=No   U3=Yes   R1=No   R2=No   R3=No
   Joint=953766   U1=Yes   U2=Yes   U3=No   R1=Yes   R2=Yes   R3=Yes
   Joint=953767   U1=No   U2=No   U3=Yes   R1=No   R2=No   R3=No
   Joint=953768   U1=Yes   U2=Yes   U3=No   R1=Yes   R2=Yes   R3=Yes
   Joint=953769   U1=No   U2=No   U3=Yes   R1=No   R2=No   R3=No
   Joint=953770   U1=Yes   U2=Yes   U3=No   R1=Yes   R2=Yes   R3=Yes
   Joint=953771   U1=No   U2=No   U3=Yes   R1=No   R2=No   R3=No
   Joint=953772   U1=Yes   U2=Yes   U3=No   R1=Yes   R2=Yes   R3=Yes
   Joint=953773   U1=No   U2=No   U3=Yes   R1=No   R2=No   R3=No
   Joint=953774   U1=Yes   U2=Yes   U3=No   R1=Yes   R2=Yes   R3=Yes
   Joint=953775   U1=No   U2=No   U3=Yes   R1=No   R2=No   R3=No
   Joint=953776   U1=Yes   U2=Yes   U3=No   R1=Yes   R2=Yes   R3=Yes
   Joint=953777   U1=No   U2=No   U3=Yes   R1=No   R2=No   R3=No
   Joint=953778   U1=Yes   U2=Yes   U3=No   R1=Yes   R2=Yes   R3=Yes
   Joint=953779   U1=No   U2=No   U3=Yes   R1=No   R2=No   R3=No
   Joint=953780   U1=Yes   U2=Yes   U3=No   R1=Yes   R2=Yes   R3=Yes
   Joint=953781   U1=No   U2=No   U3=Yes   R1=No   R2=No   R3=No
   Joint=953782   U1=Yes   U2=Yes   U3=No   R1=Yes   R2=Yes   R3=Yes
   Joint=953783   U1=No   U2=No   U3=Yes   R1=No   R2=No   R3=No
   Joint=953784   U1=Yes   U2=Yes   U3=No   R1=Yes   R2=Yes   R3=Yes
   Joint=953785   U1=No   U2=No   U3=Yes   R1=No   R2=No   R3=No
   Joint=953786   U1=Yes   U2=Yes   U3=No   R1=Yes   R2=Yes   R3=Yes
   Joint=953787   U1=No   U2=No   U3=Yes   R1=No   R2=No   R3=No
   Joint=953788   U1=Yes   U2=Yes   U3=No   R1=Yes   R2=Yes   R3=Yes
   Joint=953789   U1=No   U2=No   U3=Yes   R1=No   R2=No   R3=No
# ... 16 like lines cut
 
TABLE:  "LOAD CASE DEFINITIONS"
   Case=DEAD   Type=LinStatic   InitialCond=Zero   DesTypeOpt="Prog Det"   DesignType=Dead   DesActOpt="Prog Det"   DesignAct=Non-Composite   AutoType=None   RunCase=Yes
   Case=MODAL   Type=LinModal   InitialCond=Zero   DesTypeOpt="Prog Det"   DesignType=Other   DesActOpt="Prog Det"   DesignAct=Other   AutoType=None   RunCase=Yes
   Case=LL   Type=LinStatic   InitialCond=Zero   DesTypeOpt="Prog Det"   DesignType=Live   DesActOpt="Prog Det"   DesignAct="Short-Term Composite"   AutoType=None   RunCase=Yes
 
TABLE:  "LOAD PATTERN DEFINITIONS"
   LoadPat=DEAD   DesignType=Dead   SelfWtMult=1
   LoadPat=LL   DesignType=Live   SelfWtMult=0
 
TABLE:  "MASS SOURCE"
   MassSource=MSSSRC1   Elements=Yes   Masses=Yes   Loads=No   IsDefault=Yes
 
TABLE:  "MATERIAL PROPERTIES 01 - GENERAL"
   Material=A706   Type=Rebar   SymType=Uniaxial   TempDepend=No   Color=Gray8Dark   GUID=30185aab-1311-4f4b-9ffe-ddad707d22d9   Notes="ASTM A706 added 8/23/2025 4:27:57 PM"
   Material=BTCT   Type=Concrete   SymType=Isotropic   TempDepend=No   Color=Blue   Notes="Concrete added 24-Feb-23 16:30:01"
   Material=BTCTCOC   Type=Concrete   SymType=Isotropic   TempDepend=No   Color=Blue   Notes="Concrete added 24-Feb-23 16:30:01"
   Material=Steel   Type=Steel   SymType=Isotropic   TempDepend=No   Color=Magenta   GUID=2f952889-4898-4964-97a4-5fb5c5008d33   Notes="Steel added 8/24/2025 2:51:43 PM"
   Material=Tendon   Type=Tendon   SymType=Uniaxial   TempDepend=No   Color=Yellow   GUID=7dfcd093-823e-4b3a-b96f-35d5bcaf456f   Notes="Tendon added 8/24/2025 2:51:43 PM"
 
TABLE:  "MATERIAL PROPERTIES 02 - BASIC MECHANICAL PROPERTIES"
   Material=A706   UnitWeight=7.84904757236607   UnitMass=0.800380070686609   E1=20389019.1580383   A1=1.16999994421006E-05
   Material=BTCT   UnitWeight=2.40276966501002   UnitMass=0.245014307353044   E1=2900000   G12=1208333.33333333   U12=0.2   A1=9.9E-06
   Material=BTCTCOC   UnitWeight=2.40276966501002   UnitMass=0.245014307353044   E1=3800000000   G12=1583333333.33333   U12=0.2   A1=9.9E-06
   Material=Steel   UnitWeight=7.84904757236607   UnitMass=0.800380070686609   E1=20389019.1580383   G12=7841930.44539935   U12=0.3   A1=1.17E-05
   Material=Tendon   UnitWeight=7.84904757236607   UnitMass=0.800380070686609   E1=20037484.3449687   A1=1.16999994421006E-05
 
TABLE:  "MATERIAL PROPERTIES 03A - STEEL DATA"
   Material=Steel   Fy=35153.4813069626   Fu=45699.5256990514   EffFy=38668.8294376589   EffFu=50269.4782689565   SSCurveOpt=Simple   SSHysType=Kinematic   SHard=0.015   SMax=0.11   SRup=0.17   FinalSlope=-0.1   CoupModType="Von Mises"
 
TABLE:  "MATERIAL PROPERTIES 03B - CONCRETE DATA"
   Material=BTCT   Fc=2812.27850455701   eFc=2812.27850455701   LtWtConc=No   SSCurveOpt=Mander   SSHysType=Takeda   SFc=0.002   SCap=0.005   FinalSlope=-0.1   FAngle=0   DAngle=0   CoupModType="Modified Darwin-Pecknold"
   Material=BTCTCOC   Fc=2812.27850455701   eFc=2812.27850455701   LtWtConc=No   SSCurveOpt=Mander   SSHysType=Takeda   SFc=0.002   SCap=0.005   FinalSlope=-0.1   FAngle=0   DAngle=0   CoupModType="Modified Darwin-Pecknold"
 
TABLE:  "MATERIAL PROPERTIES 03E - REBAR DATA"
   Material=A706   Fy=42184.1775683551   Fu=56245.5700911402   EffFy=46402.5953251907   EffFu=61870.1271002542   SSCurveOpt=Simple   SSHysType=Kinematic   SHard=0.011   SCap=0.11   FinalSlope=-0.1   UseCTDef=No   CoupModType="Von Mises"
 
TABLE:  "MATERIAL PROPERTIES 03F - TENDON DATA"
   Material=Tendon   Fy=172322.365366731   Fu=189828.799057598   SSCurveOpt="270 ksi"   SSHysType=Kinematic   FinalSlope=-0.1   CoupModType="Von Mises"
 
TABLE:  "MATERIAL PROPERTIES 03J - COUPLED NONLINEAR VON MISES DATA"
   Material=A706   YieldStress=46402.5953251907   LinIsoHard=No   LinKinHard=No   NLIsoSaHard=No
   Material=Steel   YieldStress=38668.8294376589   LinIsoHard=No   LinKinHard=No   NLIsoSaHard=No
   Material=Tendon   YieldStress=172322.365366731   LinIsoHard=No   LinKinHard=No   NLIsoSaHard=No
 
TABLE:  "MATERIAL PROPERTIES 06 - DAMPING PARAMETERS"
   Material=A706   ModalRatio=0   VisMass=0   VisStiff=0   HysMass=0   HysStiff=0
   Material=BTCT   ModalRatio=0   VisMass=0   VisStiff=0   HysMass=0   HysStiff=0
   Material=BTCTCOC   ModalRatio=0   VisMass=0   VisStiff=0   HysMass=0   HysStiff=0
   Material=Steel   ModalRatio=0   VisMass=0   VisStiff=0   HysMass=0   HysStiff=0
   Material=Tendon   ModalRatio=0   VisMass=0   VisStiff=0   HysMass=0   HysStiff=0
 
TABLE:  "MATERIAL PROPERTIES 09 - ACCEPTANCE CRITERIA"
   Material=A706   IOTens=0.01   LSTens=0.02   CPTens=0.05   IOComp=-0.005   LSComp=-0.01   CPComp=-0.02
   Material=BTCT   IOTens=0.01   LSTens=0.02   CPTens=0.05   IOComp=-0.003   LSComp=-0.006   CPComp=-0.015   IgnoreTens=Yes
   Material=BTCTCOC   IOTens=0.01   LSTens=0.02   CPTens=0.05   IOComp=-0.003   LSComp=-0.006   CPComp=-0.015   IgnoreTens=Yes
   Material=Steel   IOTens=0.01   LSTens=0.02   CPTens=0.05   IOComp=-0.005   LSComp=-0.01   CPComp=-0.02
   Material=Tendon   IOTens=0.015   LSTens=0.023   CPTens=0.03   IOComp=-0.015   LSComp=-0.023   CPComp=-0.03
 
TABLE:  "OPTIONS - COLORS - DISPLAY"
   DeviceType=Screen   Points=Blue   LinesFrame=Blue   LinesFrmDL=Blue   LinesCable=Green   LinesTendon=Green   SpringLinks=Green   Restraints=Green   Releases=Green   Axes=Cyan   Text=Black   ShadowLines=Gray8Dark   GuideLines=Gray8Dark _
        Highlight=Red   Selection=10504778   AreaFillBot=Red   AreaFillTop=16744703   AreaFillSd=Red   AreaEdge=DarkRed   SolidF1=Red   SolidF2=Blue   SolidF3=Green   SolidF4=Yellow   SolidF5=White   SolidF6=Cyan   SolidEdge=DarkRed _
        Floor=Gray4   Background=White   BGLowLeft=White   BGLowRight=White   BGUpRight=White   Darkness=0.5
   DeviceType=Printer   Points=Gray8Dark   LinesFrame=Black   LinesFrmDL=Gray4   LinesCable=Black   LinesTendon=Black   SpringLinks=Gray8Dark   Restraints=Gray8Dark   Releases=Gray4   Axes=Black   Text=Black   ShadowLines=Gray4 _
        GuideLines=Gray4   Highlight=Black   Selection=Black   AreaFillBot=Gray4   AreaFillTop=Gray8Dark   AreaFillSd=Gray4   AreaEdge=Black   SolidF1=Gray1Light   SolidF2=Gray2   SolidF3=Gray3   SolidF4=Gray4   SolidF5=Gray5 _
        SolidF6=Gray6   SolidEdge=Black   Floor=Gray4   Background=White   BGLowLeft=White   BGLowRight=White   BGUpRight=White   Darkness=0.5
   DeviceType="Color Printer"   Points=Blue   LinesFrame=Blue   LinesFrmDL=Blue   LinesCable=Green   LinesTendon=Green   SpringLinks=Green   Restraints=Green   Releases=Green   Axes=Cyan   Text=Black   ShadowLines=Gray8Dark _
        GuideLines=Gray8Dark   Highlight=Red   Selection=10504778   AreaFillBot=Red   AreaFillTop=16744703   AreaFillSd=Red   AreaEdge=DarkRed   SolidF1=Red   SolidF2=Blue   SolidF3=Green   SolidF4=Yellow   SolidF5=White   SolidF6=Cyan _
        SolidEdge=DarkRed   Floor=Gray4   Background=White   BGLowLeft=White   BGLowRight=White   BGUpRight=White   Darkness=0.5
 
TABLE:  "OPTIONS - COLORS - OUTPUT"
   DeviceType=Screen   Contour1=13107400   Contour2=6553828   Contour3=Red   Contour4=16639   Contour5=Orange   Contour6=43775   Contour7=54527   Contour8=Yellow   Contour9=65408   Contour10=Green   Contour11=8453888   Contour12=Cyan _
        Contour13=16755200   Contour14=16733440   Contour15=Blue   Transpare=0.5   Ratio1=Cyan   Ratio2=Green   Ratio3=Yellow   Ratio4=Orange   Ratio5=Red   RatioNotD=Gray4   RatioNotC=Red   RatioVal1=0.5   RatioVal2=0.7   RatioVal3=0.9 _
        RatioVal4=1   DFillPos=Blue   DFillNeg=Red   DFillRPos=Green   DFillRNeg=Green
   DeviceType=Printer   Contour1=Black   Contour2=3158064   Contour3=4210752   Contour4=5263440   Contour5=6316128   Contour6=7368816   Contour7=Gray8Dark   Contour8=Gray7   Contour9=Gray6   Contour10=Gray5   Contour11=Gray4 _
        Contour12=Gray3   Contour13=Gray2   Contour14=Gray1Light   Contour15=White   Transpare=0   Ratio1=Gray2   Ratio2=Gray4   Ratio3=Gray8Dark   Ratio4=4210752   Ratio5=Black   RatioNotD=Gray4   RatioNotC=Black   RatioVal1=0.5 _
        RatioVal2=0.7   RatioVal3=0.9   RatioVal4=1   DFillPos=Gray8Dark   DFillNeg=Gray8Dark   DFillRPos=4210752   DFillRNeg=4210752
   DeviceType="Color Printer"   Contour1=13107400   Contour2=6553828   Contour3=Red   Contour4=16639   Contour5=Orange   Contour6=43775   Contour7=54527   Contour8=Yellow   Contour9=65408   Contour10=Green   Contour11=8453888 _
        Contour12=Cyan   Contour13=16755200   Contour14=16733440   Contour15=Blue   Transpare=0   Ratio1=Cyan   Ratio2=Green   Ratio3=Yellow   Ratio4=Orange   Ratio5=Red   RatioNotD=Gray4   RatioNotC=Red   RatioVal1=0.5   RatioVal2=0.7 _
        RatioVal3=0.9   RatioVal4=1   DFillPos=Blue   DFillNeg=Red   DFillRPos=Green   DFillRNeg=Green
 
TABLE:  "OVERWRITES - CONCRETE DESIGN - CSA-A233-14"
   Frame=1106649   DesignSect="Program Determined"   FrameType="Program Determined"   RLLF=0   XLMajor=0   XLMinor=0   XKMajor=0   XKMinor=0   CmMajor=0   CmMinor=0   DbMajor=0   DbMinor=0   DsMajor=0   DsMinor=0   Rd=0   Ro=0   MaxAggSize=0
   Frame=1106650   DesignSect="Program Determined"   FrameType="Program Determined"   RLLF=0   XLMajor=0   XLMinor=0   XKMajor=0   XKMinor=0   CmMajor=0   CmMinor=0   DbMajor=0   DbMinor=0   DsMajor=0   DsMinor=0   Rd=0   Ro=0   MaxAggSize=0
   Frame=1106651   DesignSect="Program Determined"   FrameType="Program Determined"   RLLF=0   XLMajor=0   XLMinor=0   XKMajor=0   XKMinor=0   CmMajor=0   CmMinor=0   DbMajor=0   DbMinor=0   DsMajor=0   DsMinor=0   Rd=0   Ro=0   MaxAggSize=0
   Frame=1106652   DesignSect="Program Determined"   FrameType="Program Determined"   RLLF=0   XLMajor=0   XLMinor=0   XKMajor=0   XKMinor=0   CmMajor=0   CmMinor=0   DbMajor=0   DbMinor=0   DsMajor=0   DsMinor=0   Rd=0   Ro=0   MaxAggSize=0
   Frame=1106653   DesignSect="Program Determined"   FrameType="Program Determined"   RLLF=0   XLMajor=0   XLMinor=0   XKMajor=0   XKMinor=0   CmMajor=0   CmMinor=0   DbMajor=0   DbMinor=0   DsMajor=0   DsMinor=0   Rd=0   Ro=0   MaxAggSize=0
   Frame=1106654   DesignSect="Program Determined"   FrameType="Program Determined"   RLLF=0   XLMajor=0   XLMinor=0   XKMajor=0   XKMinor=0   CmMajor=0   CmMinor=0   DbMajor=0   DbMinor=0   DsMajor=0   DsMinor=0   Rd=0   Ro=0   MaxAggSize=0
   Frame=1106655   DesignSect="Program Determined"   FrameType="Program Determined"   RLLF=0   XLMajor=0   XLMinor=0   XKMajor=0   XKMinor=0   CmMajor=0   CmMinor=0   DbMajor=0   DbMinor=0   DsMajor=0   DsMinor=0   Rd=0   Ro=0   MaxAggSize=0
   Frame=1106656   DesignSect="Program Determined"   FrameType="Program Determined"   RLLF=0   XLMajor=0   XLMinor=0   XKMajor=0   XKMinor=0   CmMajor=0   CmMinor=0   DbMajor=0   DbMinor=0   DsMajor=0   DsMinor=0   Rd=0   Ro=0   MaxAggSize=0
   Frame=1106657   DesignSect="Program Determined"   FrameType="Program Determined"   RLLF=0   XLMajor=0   XLMinor=0   XKMajor=0   XKMinor=0   CmMajor=0   CmMinor=0   DbMajor=0   DbMinor=0   DsMajor=0   DsMinor=0   Rd=0   Ro=0   MaxAggSize=0
   Frame=1106658   DesignSect="Program Determined"   FrameType="Program Determined"   RLLF=0   XLMajor=0   XLMinor=0   XKMajor=0   XKMinor=0   CmMajor=0   CmMinor=0   DbMajor=0   DbMinor=0   DsMajor=0   DsMinor=0   Rd=0   Ro=0   MaxAggSize=0
   Frame=1106659   DesignSect="Program Determined"   FrameType="Program Determined"   RLLF=0   XLMajor=0   XLMinor=0   XKMajor=0   XKMinor=0   CmMajor=0   CmMinor=0   DbMajor=0   DbMinor=0   DsMajor=0   DsMinor=0   Rd=0   Ro=0   MaxAggSize=0
   Frame=1106660   DesignSect="Program Determined"   FrameType="Program Determined"   RLLF=0   XLMajor=0   XLMinor=0   XKMajor=0   XKMinor=0   CmMajor=0   CmMinor=0   DbMajor=0   DbMinor=0   DsMajor=0   DsMinor=0   Rd=0   Ro=0   MaxAggSize=0
   Frame=1106661   DesignSect="Program Determined"   FrameType="Program Determined"   RLLF=0   XLMajor=0   XLMinor=0   XKMajor=0   XKMinor=0   CmMajor=0   CmMinor=0   DbMajor=0   DbMinor=0   DsMajor=0   DsMinor=0   Rd=0   Ro=0   MaxAggSize=0
   Frame=1106662   DesignSect="Program Determined"   FrameType="Program Determined"   RLLF=0   XLMajor=0   XLMinor=0   XKMajor=0   XKMinor=0   CmMajor=0   CmMinor=0   DbMajor=0   DbMinor=0   DsMajor=0   DsMinor=0   Rd=0   Ro=0   MaxAggSize=0
   Frame=1106663   DesignSect="Program Determined"   FrameType="Program Determined"   RLLF=0   XLMajor=0   XLMinor=0   XKMajor=0   XKMinor=0   CmMajor=0   CmMinor=0   DbMajor=0   DbMinor=0   DsMajor=0   DsMinor=0   Rd=0   Ro=0   MaxAggSize=0
   Frame=1106664   DesignSect="Program Determined"   FrameType="Program Determined"   RLLF=0   XLMajor=0   XLMinor=0   XKMajor=0   XKMinor=0   CmMajor=0   CmMinor=0   DbMajor=0   DbMinor=0   DsMajor=0   DsMinor=0   Rd=0   Ro=0   MaxAggSize=0
   Frame=1106665   DesignSect="Program Determined"   FrameType="Program Determined"   RLLF=0   XLMajor=0   XLMinor=0   XKMajor=0   XKMinor=0   CmMajor=0   CmMinor=0   DbMajor=0   DbMinor=0   DsMajor=0   DsMinor=0   Rd=0   Ro=0   MaxAggSize=0
   Frame=1106666   DesignSect="Program Determined"   FrameType="Program Determined"   RLLF=0   XLMajor=0   XLMinor=0   XKMajor=0   XKMinor=0   CmMajor=0   CmMinor=0   DbMajor=0   DbMinor=0   DsMajor=0   DsMinor=0   Rd=0   Ro=0   MaxAggSize=0
   Frame=1106667   DesignSect="Program Determined"   FrameType="Program Determined"   RLLF=0   XLMajor=0   XLMinor=0   XKMajor=0   XKMinor=0   CmMajor=0   CmMinor=0   DbMajor=0   DbMinor=0   DsMajor=0   DsMinor=0   Rd=0   Ro=0   MaxAggSize=0
   Frame=1106668   DesignSect="Program Determined"   FrameType="Program Determined"   RLLF=0   XLMajor=0   XLMinor=0   XKMajor=0   XKMinor=0   CmMajor=0   CmMinor=0   DbMajor=0   DbMinor=0   DsMajor=0   DsMinor=0   Rd=0   Ro=0   MaxAggSize=0
# ... 60 like lines cut
 
TABLE:  "PREFERENCES - ALUMINUM DESIGN - AA 2015"
   THDesign=Envelopes   SRatioLimit=1   Provision=ASD   LatFact=1.33333333333333   UseLatFact=No   Bridge=No   OmegaTy=1.65   OmegaTr=1.95   OmegaC=1.65   OmegaBo=1.65   OmegaBr=1.95   OmegaVo=1.65   OmegaVr=1.95
 
TABLE:  "PREFERENCES - COLD FORMED DESIGN - AISI-ASD96"
   THDesign=Envelopes   FrameType="Braced Frame"   SRatioLimit=1   MaxIter=1   OmegaBS=1.67   OmegaBUS=1.67   OmegaBLTB=1.67   OmegaVS=1.67   OmegaVNS=1.5   OmegaT=1.67   OmegaC=1.8
 
TABLE:  "PREFERENCES - CONCRETE DESIGN - CSA-A233-14"
   THDesign=Envelopes   NumCurves=24   NumPoints=11   MinEccen=Yes   BCCDesign=Yes   CTorsion=Yes   PatLLF=0.75   UFLimit=0.95   PhiS=0.85   PhiC=0.65
 
TABLE:  "PREFERENCES - CONCRETE SHELL DESIGN - EUROCODE 2-2004"
   Country="CEN Default"   GammaS=1.15   GammaC=1.5   AlphaCC=1
 
TABLE:  "PREFERENCES - DIMENSIONAL"
   MergeTol=0.001   FineGrid=0.25   Nudge=0.25   SelectTol=3   SnapTol=12   SLineThick=1   PLineThick=4   MaxFont=8   MinFont=3   AutoZoom=10   ShrinkFact=70   TextFileLen=240
 
TABLE:  "PREFERENCES - STEEL DESIGN - AISC 360-10"
   THDesign=Envelopes   FrameType=SMF   PatLLF=0.75   SRatioLimit=0.95   MaxIter=1   SDC=D   SeisCode=No   SeisLoad=No   ImpFactor=1   SystemRho=1   SystemSds=0.5   SystemR=8   SystemCd=5.5   Omega0=3   Provision=LRFD _
        AMethod="Direct Analysis"   SOMethod="General 2nd Order"   SRMethod="Tau-b Fixed"   NLCoeff=0.002   PhiB=0.9   PhiC=0.9   PhiTY=0.9   PhiTF=0.75   PhiV=0.9   PhiVRolledI=1   PhiVT=0.9   PlugWeld=Yes   HSSWelding=ERW   HSSReduceT=No _
        CheckDefl=No   DLRat=120   SDLAndLLRat=120   LLRat=360   TotalRat=240   NetRat=240
 
TABLE:  "PROGRAM CONTROL"
   ProgramName=SAP2000   Version=24.0.0   CurrUnits="Tonf, m, C"   SteelCode="AISC 360-10"   ConcCode="CSA A23.3-14"   AlumCode="AA 2015"   ColdCode=AISI-ASD96   RegenHinge=Yes
 
TABLE:  "PROJECT INFORMATION"
   Item="Company Name"   Data=po
   Item="Client Name"
   Item="Project Name"
   Item="Project Number"
   Item="Model Name"
   Item="Model Description"
   Item="Revision Number"
   Item="Frame Type"
   Item=Engineer
   Item=Checker
   Item=Supervisor
   Item="Issue Code"
   Item="Design Code"
 
TABLE:  "REBAR SIZES"
   RebarID=#2   Area=3.2258E-05   Diameter=0.00635
   RebarID=#3   Area=7.09675996154547E-05   Diameter=0.009525
   RebarID=#4   Area=0.000129032001922727   Diameter=0.0127
   RebarID=#5   Area=0.000199999601538181   Diameter=0.015875
   RebarID=#6   Area=0.000283870398461819   Diameter=0.01905
   RebarID=#7   Area=0.000387096015381813   Diameter=0.022225
   RebarID=#8   Area=0.000509676413843632   Diameter=0.0254
   RebarID=#9   Area=0.00064516   Diameter=0.0286512005329132
   RebarID=#10   Area=0.00081935318769455   Diameter=0.0322579995155334
   RebarID=#11   Area=0.00100644956308365   Diameter=0.0358139991521835
   RebarID=#14   Area=0.00145161   Diameter=0.0430021989583969
   RebarID=#18   Area=0.00258064   Diameter=0.0573277992248535
   RebarID=10M   Area=0.000100000004162606   Diameter=0.0113000003604438
   RebarID=15M   Area=0.000200000008325212   Diameter=0.0160000002402959
   RebarID=20M   Area=0.000300000012487818   Diameter=0.0195000002928606
   RebarID=25M   Area=0.000500000020813031   Diameter=0.0252000011414055
   RebarID=30M   Area=0.000700000029138243   Diameter=0.0299000000675832
   RebarID=35M   Area=0.00100000004162606   Diameter=0.0357000012990997
   RebarID=45M   Area=0.00150000006243909   Diameter=0.0437000014192476
   RebarID=55M   Area=0.00250000010406515   Diameter=0.056400002372922
   RebarID=6d   Area=2.83000004150781E-05   Diameter=0.00600000009011096
   RebarID=8d   Area=5.03000013308514E-05   Diameter=0.00800000012014795
   RebarID=10d   Area=7.85000032676458E-05   Diameter=0.0100000001501849
   RebarID=12d   Area=0.000113000004703745   Diameter=0.0120000001802219
   RebarID=14d   Area=0.000154000006410413   Diameter=0.0140000002102589
   RebarID=16d   Area=0.000201000008366838   Diameter=0.0160000002402959
   RebarID=20d   Area=0.000314000013070583   Diameter=0.0200000003003699
   RebarID=25d   Area=0.000491000020438396   Diameter=0.0250000003754623
   RebarID=26d   Area=0.000531000022103439   Diameter=0.0260000003904808
   RebarID=28d   Area=0.000616000025641654   Diameter=0.0280000004205178
   RebarID=N12   Area=0.000113000004703745   Diameter=0.0120000001802219
   RebarID=N16   Area=0.000201000008366838   Diameter=0.0160000002402959
   RebarID=N20   Area=0.000314000013070583   Diameter=0.0200000003003699
   RebarID=N24   Area=0.00045200001881498   Diameter=0.0240000003604438
   RebarID=N28   Area=0.000616000025641654   Diameter=0.0280000004205178
   RebarID=N32   Area=0.000804000033467353   Diameter=0.0320000004805918
   RebarID=N36   Area=0.00102000004245858   Diameter=0.0360000005406658
 
TABLE:  "SOLID PROPERTY DEFINITIONS"
   SolidProp=Solid1   Material=BTCT   MatAngleA=0   MatAngleB=0   MatAngleC=0   InComp=Yes   Color=Gray8Dark
 
END TABLE DATA
