File D:\ResearchLab\02_Projects\02_Projects\Tap chi XD_SFOA\code\SOO_MPJ\MPJ_Sap\SOO_Cost_W11\MPJ_11.$2k was saved on m/d/yy at h:mm:ss
 
TABLE:  "ACTIVE DEGREES OF FREEDOM"
   UX=Yes   UY=Yes   UZ=Yes   RX=Yes   RY=Yes   RZ=Yes
 
TABLE:  "ANALYSIS OPTIONS"
   Solver=Advanced   SolverProc=Auto   Force32Bit=No   StiffCase=None   GeomMod=None   HingeOpt="In Elements"   NumAThreads=0   MaxFileSize=0   NumDThreads=0   NumRThreads=0   UseMMFiles="Program Determined"   AllowDiff=No
 
TABLE:  "AREA AUTO MESH ASSIGNMENTS"
   Area=154937   MeshType="Number of Elements"   MeshGroup=ALL   Number1=3   Number2=3   LocalEdge=No   LocalFace=No   SuppEdge=No   SuppFace=No   SubMesh=No
   Area=154938   MeshType="Number of Elements"   MeshGroup=ALL   Number1=3   Number2=3   LocalEdge=No   LocalFace=No   SuppEdge=No   SuppFace=No   SubMesh=No
   Area=154939   MeshType="Number of Elements"   MeshGroup=ALL   Number1=3   Number2=3   LocalEdge=No   LocalFace=No   SuppEdge=No   SuppFace=No   SubMesh=No
   Area=154940   MeshType="Number of Elements"   MeshGroup=ALL   Number1=3   Number2=3   LocalEdge=No   LocalFace=No   SuppEdge=No   SuppFace=No   SubMesh=No
   Area=154941   MeshType="Number of Elements"   MeshGroup=ALL   Number1=3   Number2=3   LocalEdge=No   LocalFace=No   SuppEdge=No   SuppFace=No   SubMesh=No
   Area=154942   MeshType="Number of Elements"   MeshGroup=ALL   Number1=3   Number2=3   LocalEdge=No   LocalFace=No   SuppEdge=No   SuppFace=No   SubMesh=No
   Area=154943   MeshType="Number of Elements"   MeshGroup=ALL   Number1=3   Number2=3   LocalEdge=No   LocalFace=No   SuppEdge=No   SuppFace=No   SubMesh=No
   Area=154944   MeshType="Number of Elements"   MeshGroup=ALL   Number1=3   Number2=3   LocalEdge=No   LocalFace=No   SuppEdge=No   SuppFace=No   SubMesh=No
   Area=154945   MeshType="Number of Elements"   MeshGroup=ALL   Number1=3   Number2=3   LocalEdge=No   LocalFace=No   SuppEdge=No   SuppFace=No   SubMesh=No
   Area=154946   MeshType="Number of Elements"   MeshGroup=ALL   Number1=3   Number2=3   LocalEdge=No   LocalFace=No   SuppEdge=No   SuppFace=No   SubMesh=No
   Area=154947   MeshType="Number of Elements"   MeshGroup=ALL   Number1=3   Number2=3   LocalEdge=No   LocalFace=No   SuppEdge=No   SuppFace=No   SubMesh=No
   Area=154948   MeshType="Number of Elements"   MeshGroup=ALL   Number1=3   Number2=3   LocalEdge=No   LocalFace=No   SuppEdge=No   SuppFace=No   SubMesh=No
   Area=154949   MeshType="Number of Elements"   MeshGroup=ALL   Number1=3   Number2=3   LocalEdge=No   LocalFace=No   SuppEdge=No   SuppFace=No   SubMesh=No
   Area=154950   MeshType="Number of Elements"   MeshGroup=ALL   Number1=3   Number2=3   LocalEdge=No   LocalFace=No   SuppEdge=No   SuppFace=No   SubMesh=No
   Area=154951   MeshType="Number of Elements"   MeshGroup=ALL   Number1=3   Number2=3   LocalEdge=No   LocalFace=No   SuppEdge=No   SuppFace=No   SubMesh=No
   Area=154952   MeshType="Number of Elements"   MeshGroup=ALL   Number1=3   Number2=3   LocalEdge=No   LocalFace=No   SuppEdge=No   SuppFace=No   SubMesh=No
   Area=154953   MeshType="Number of Elements"   MeshGroup=ALL   Number1=3   Number2=3   LocalEdge=No   LocalFace=No   SuppEdge=No   SuppFace=No   SubMesh=No
   Area=154954   MeshType="Number of Elements"   MeshGroup=ALL   Number1=3   Number2=3   LocalEdge=No   LocalFace=No   SuppEdge=No   SuppFace=No   SubMesh=No
   Area=154955   MeshType="Number of Elements"   MeshGroup=ALL   Number1=3   Number2=3   LocalEdge=No   LocalFace=No   SuppEdge=No   SuppFace=No   SubMesh=No
   Area=154956   MeshType="Number of Elements"   MeshGroup=ALL   Number1=3   Number2=3   LocalEdge=No   LocalFace=No   SuppEdge=No   SuppFace=No   SubMesh=No
# ... 4 like lines cut
 
TABLE:  "AREA LOADS - UNIFORM"
   Area=154937   LoadPat=LL   CoordSys=GLOBAL   Dir=Gravity   UnifLoad=1.00034158457019
   Area=154938   LoadPat=LL   CoordSys=GLOBAL   Dir=Gravity   UnifLoad=1.00034158457019
   Area=154939   LoadPat=LL   CoordSys=GLOBAL   Dir=Gravity   UnifLoad=1.00034158457019
   Area=154940   LoadPat=LL   CoordSys=GLOBAL   Dir=Gravity   UnifLoad=1.00034158457019
   Area=154941   LoadPat=LL   CoordSys=GLOBAL   Dir=Gravity   UnifLoad=1.00034158457019
   Area=154942   LoadPat=LL   CoordSys=GLOBAL   Dir=Gravity   UnifLoad=1.00034158457019
   Area=154943   LoadPat=LL   CoordSys=GLOBAL   Dir=Gravity   UnifLoad=1.00034158457019
   Area=154944   LoadPat=LL   CoordSys=GLOBAL   Dir=Gravity   UnifLoad=1.00034158457019
   Area=154945   LoadPat=LL   CoordSys=GLOBAL   Dir=Gravity   UnifLoad=1.00034158457019
   Area=154946   LoadPat=LL   CoordSys=GLOBAL   Dir=Gravity   UnifLoad=1.00034158457019
   Area=154947   LoadPat=LL   CoordSys=GLOBAL   Dir=Gravity   UnifLoad=1.00034158457019
   Area=154948   LoadPat=LL   CoordSys=GLOBAL   Dir=Gravity   UnifLoad=1.00034158457019
   Area=154949   LoadPat=LL   CoordSys=GLOBAL   Dir=Gravity   UnifLoad=1.00034158457019
   Area=154950   LoadPat=LL   CoordSys=GLOBAL   Dir=Gravity   UnifLoad=1.00034158457019
   Area=154951   LoadPat=LL   CoordSys=GLOBAL   Dir=Gravity   UnifLoad=1.00034158457019
   Area=154952   LoadPat=LL   CoordSys=GLOBAL   Dir=Gravity   UnifLoad=1.00034158457019
   Area=154953   LoadPat=LL   CoordSys=GLOBAL   Dir=Gravity   UnifLoad=1.00034158457019
   Area=154954   LoadPat=LL   CoordSys=GLOBAL   Dir=Gravity   UnifLoad=1.00034158457019
   Area=154955   LoadPat=LL   CoordSys=GLOBAL   Dir=Gravity   UnifLoad=1.00034158457019
   Area=154956   LoadPat=LL   CoordSys=GLOBAL   Dir=Gravity   UnifLoad=1.00034158457019
# ... 4 like lines cut
 
TABLE:  "AREA SECTION ASSIGNMENTS"
   Area=154937   Section=Deck   MatProp=Default
   Area=154938   Section=Deck   MatProp=Default
   Area=154939   Section=Deck   MatProp=Default
   Area=154940   Section=Deck   MatProp=Default
   Area=154941   Section=Deck   MatProp=Default
   Area=154942   Section=Deck   MatProp=Default
   Area=154943   Section=Deck   MatProp=Default
   Area=154944   Section=Deck   MatProp=Default
   Area=154945   Section=Deck   MatProp=Default
   Area=154946   Section=Deck   MatProp=Default
   Area=154947   Section=Deck   MatProp=Default
   Area=154948   Section=Deck   MatProp=Default
   Area=154949   Section=Deck   MatProp=Default
   Area=154950   Section=Deck   MatProp=Default
   Area=154951   Section=Deck   MatProp=Default
   Area=154952   Section=Deck   MatProp=Default
   Area=154953   Section=Deck   MatProp=Default
   Area=154954   Section=Deck   MatProp=Default
   Area=154955   Section=Deck   MatProp=Default
   Area=154956   Section=Deck   MatProp=Default
# ... 4 like lines cut
 
TABLE:  "AREA SECTION PROPERTIES"
   Section=Deck   Material=BTCT   MatAngle=0   AreaType=Shell   Type=Shell-Thin   DrillDOF=Yes   Thickness=0.3   BendThick=0.3   Color=Green   F11Mod=1   F22Mod=1   F12Mod=1   M11Mod=1   M22Mod=1   M12Mod=1   V13Mod=1   V23Mod=1   MMod=1 _
        WMod=1   Notes="Added 24-Feb-23 16:56:47"
 
TABLE:  "AREA SECTION PROPERTY DESIGN PARAMETERS"
   Section=Deck   RebarMat=None   RebarOpt=Default
 
TABLE:  "AREA SECTION PROPERTY - TIME DEPENDENT"
   Section=Deck   TypeSize=User   AutoSFSize=1   UserValSize=0.1
 
TABLE:  "AUTO COMBINATION OPTION DATA 01 - GENERAL"
   DesignType=Concrete   AutoGen=Yes
 
TABLE:  "AUTO COMBINATION OPTION DATA 02 - USER DATA"
   DesignType=Concrete   LSType=Strength   LCName=DEAD
   DesignType=Concrete   LSType=Strength   LCName=LL
 
TABLE:  "AUTO WAVE 3 - WAVE CHARACTERISTICS - GENERAL"
   WaveChar=Default   WaveType="From Theory"   KinFactor=1   SWaterDepth=45   WaveHeight=18   WavePeriod=12   WaveTheory=Linear
 
TABLE:  "CASE - MODAL 1 - GENERAL"
   Case=MODAL   ModeType=Eigen   MaxNumModes=12   MinNumModes=1   EigenShift=0   EigenCutoff=0   EigenTol=1E-09   AutoShift=Yes
 
TABLE:  "CASE - STATIC 1 - LOAD ASSIGNMENTS"
   Case=DEAD   LoadType="Load pattern"   LoadName=DEAD   LoadSF=1
   Case=LL   LoadType="Load pattern"   LoadName=LL   LoadSF=1
 
TABLE:  "COMBINATION DEFINITIONS"
   ComboName=COMB1   ComboType="Linear Add"   AutoDesign=No   CaseName=DEAD   ScaleFactor=1   SteelDesign=None   ConcDesign=Strength   AlumDesign=None   ColdDesign=None
   ComboName=COMB2   ComboType="Linear Add"   AutoDesign=No   CaseName=DEAD   ScaleFactor=1   SteelDesign=None   ConcDesign=Strength   AlumDesign=None   ColdDesign=None
   ComboName=COMB2   CaseName=LL   ScaleFactor=1
   ComboName=BAO   ComboType=Envelope   AutoDesign=No   CaseName=COMB1   ScaleFactor=1   SteelDesign=None   ConcDesign=Strength   AlumDesign=None   ColdDesign=None
   ComboName=BAO   CaseName=COMB2   ScaleFactor=1
   ComboName=DCON1   ComboType="Linear Add"   AutoDesign=Yes   CaseName=DEAD   ScaleFactor=1.4   SteelDesign=None   ConcDesign=Strength   AlumDesign=None   ColdDesign=None   GUID=bb4fff9a-98b5-44d1-9fde-34d92700a8e9   Notes="Dead Only; Strength"
   ComboName=DCON2   ComboType="Linear Add"   AutoDesign=Yes   CaseName=DEAD   ScaleFactor=1.25   SteelDesign=None   ConcDesign=Strength   AlumDesign=None   ColdDesign=None   GUID=505bcda7-6fac-4dd0-b03e-c591d1ffc6ce   Notes="Dead + Live; Strength"
   ComboName=DCON2   CaseName=LL   ScaleFactor=1.5
 
TABLE:  "CONNECTIVITY - AREA"
   Area=154937   Joint1=453685   Joint2=453646   Joint3=453619   Joint4=453618   GUID=0910511e-9551-46e6-84fd-2a77330c20e9
   Area=154938   Joint1=453618   Joint2=453619   Joint3=453621   Joint4=453620   GUID=65a481a5-8724-4ad7-aee2-505a2b652481
   Area=154939   Joint1=453620   Joint2=453621   Joint3=453623   Joint4=453622   GUID=bb29054c-39e5-4ae4-bf28-a2afdbea4bae
   Area=154940   Joint1=453622   Joint2=453623   Joint3=453625   Joint4=453624   GUID=0da50d93-0bb6-4939-acf1-d5accc7218b0
   Area=154941   Joint1=453624   Joint2=453625   Joint3=453627   Joint4=453626   GUID=828e0165-7a9d-4fa6-a96c-056d47cc1116
   Area=154942   Joint1=453626   Joint2=453627   Joint3=453629   Joint4=453628   GUID=b3c519a2-fe8a-4e90-8559-2e95d483d3f5
   Area=154943   Joint1=453628   Joint2=453629   Joint3=453631   Joint4=453630   GUID=8bd87e3d-0241-4e28-9121-ab5881f216d6
   Area=154944   Joint1=453630   Joint2=453631   Joint3=453648   Joint4=453686   GUID=2fe556e0-131f-4c89-9568-3554690b54b3
   Area=154945   Joint1=453646   Joint2=453647   Joint3=453632   Joint4=453619   GUID=4f9448ea-1120-4e67-a8fa-ab0128b41342
   Area=154946   Joint1=453619   Joint2=453632   Joint3=453633   Joint4=453621   GUID=53887fed-fc08-44b4-829b-abe5762455f5
   Area=154947   Joint1=453621   Joint2=453633   Joint3=453634   Joint4=453623   GUID=2dc3ce9e-86d2-4bd6-8dd0-81a01ca1caaa
   Area=154948   Joint1=453623   Joint2=453634   Joint3=453635   Joint4=453625   GUID=5c708ed4-ed9c-4392-af7b-eb7f7fd7293a
   Area=154949   Joint1=453625   Joint2=453635   Joint3=453636   Joint4=453627   GUID=ac65cd97-2b77-4948-b39a-23dd08ca5c15
   Area=154950   Joint1=453627   Joint2=453636   Joint3=453637   Joint4=453629   GUID=b47cb7b2-2fcd-4b6c-b4ca-ea31b69ceadb
   Area=154951   Joint1=453629   Joint2=453637   Joint3=453638   Joint4=453631   GUID=a984d16f-f22c-4ad6-8027-06128689c55c
   Area=154952   Joint1=453631   Joint2=453638   Joint3=453649   Joint4=453648   GUID=55a83709-a248-4a58-8796-4f9b7fceb098
   Area=154953   Joint1=453647   Joint2=453687   Joint3=453639   Joint4=453632   GUID=f1780f25-e943-44b7-ba75-405005163e7c
   Area=154954   Joint1=453632   Joint2=453639   Joint3=453640   Joint4=453633   GUID=2cc2f037-5e63-4e56-a510-94286d58bcfa
   Area=154955   Joint1=453633   Joint2=453640   Joint3=453641   Joint4=453634   GUID=24d2ccfa-a1e9-415e-8022-44ec56e365b1
   Area=154956   Joint1=453634   Joint2=453641   Joint3=453642   Joint4=453635   GUID=ff888252-b621-4049-899e-992a77c9786a
   Area=154957   Joint1=453635   Joint2=453642   Joint3=453643   Joint4=453636   GUID=18da171d-c894-45e9-b543-53cbe2379b6c
   Area=154958   Joint1=453636   Joint2=453643   Joint3=453644   Joint4=453637   GUID=e83dc4bd-6bdc-4bf5-b13b-6d5dac78c8fa
   Area=154959   Joint1=453637   Joint2=453644   Joint3=453645   Joint4=453638   GUID=5b1494f4-6c76-44f5-b679-0d292fb5cb39
   Area=154960   Joint1=453638   Joint2=453645   Joint3=453688   Joint4=453649   GUID=2440407f-d5d5-4085-8577-e2fb8834e200
 
TABLE:  "CONNECTIVITY - FRAME"
   Frame=510055   JointI=453618   JointJ=453619   IsCurved=No   GUID=719260b3-1c5d-4e82-8038-7d3358c635d0
   Frame=510056   JointI=453620   JointJ=453621   IsCurved=No   GUID=1c8ad2c9-4ba1-4eae-89b1-bd4bbb5b754c
   Frame=510057   JointI=453622   JointJ=453623   IsCurved=No   GUID=5c5f468f-8f93-426c-a125-5d763a54abcd
   Frame=510058   JointI=453624   JointJ=453625   IsCurved=No   GUID=8a74a5d8-32d9-4b38-b698-6601e9a8e496
   Frame=510059   JointI=453626   JointJ=453627   IsCurved=No   GUID=a46ce5b9-a6b2-47bb-b60d-498f6ddd5d90
   Frame=510060   JointI=453628   JointJ=453629   IsCurved=No   GUID=13eced5c-2c52-44cd-a66b-f643361a16a3
   Frame=510061   JointI=453630   JointJ=453631   IsCurved=No   GUID=da40ce26-52c4-4f0e-a772-3bbbae89676a
   Frame=510062   JointI=453619   JointJ=453632   IsCurved=No   GUID=e494b4ec-5622-41eb-ac22-5921134a5386
   Frame=510063   JointI=453621   JointJ=453633   IsCurved=No   GUID=f8a8fa39-567e-4c15-89c0-fc3426e7ff57
   Frame=510064   JointI=453623   JointJ=453634   IsCurved=No   GUID=f883c6fd-f8c8-45ec-85a3-9bef1547ed36
   Frame=510065   JointI=453625   JointJ=453635   IsCurved=No   GUID=c3ddabbd-10cd-4033-a715-4ba997d5a0b8
   Frame=510066   JointI=453627   JointJ=453636   IsCurved=No   GUID=330b8ea9-32d8-494f-a841-e179fbfd3504
   Frame=510067   JointI=453629   JointJ=453637   IsCurved=No   GUID=fea18c30-3d16-45ee-9e73-c92ff9bb8b77
   Frame=510068   JointI=453631   JointJ=453638   IsCurved=No   GUID=dfbc4e22-31ed-4327-bac7-d62c99799adb
   Frame=510069   JointI=453632   JointJ=453639   IsCurved=No   GUID=67406fd6-2a09-488c-abb7-b11767a7e907
   Frame=510070   JointI=453633   JointJ=453640   IsCurved=No   GUID=3af88251-5409-4724-920c-acd8396ccd0c
   Frame=510071   JointI=453634   JointJ=453641   IsCurved=No   GUID=70cb4b87-f6b2-4e6a-9c65-2d11ed5a6eb6
   Frame=510072   JointI=453635   JointJ=453642   IsCurved=No   GUID=6f455499-0c13-40f4-b4e3-c286ae963157
   Frame=510073   JointI=453636   JointJ=453643   IsCurved=No   GUID=9026be93-b285-4764-a72b-026cc0d4fa72
   Frame=510074   JointI=453637   JointJ=453644   IsCurved=No   GUID=318bf5c0-55b5-449a-a69b-215ed9c80d7a
   Frame=510075   JointI=453638   JointJ=453645   IsCurved=No   GUID=d990bfaa-e9bd-4d30-9b81-35ff8de663f0
   Frame=510076   JointI=453646   JointJ=453619   IsCurved=No   GUID=aac95f71-b02f-456a-bbcb-5c42c314de3e
   Frame=510077   JointI=453647   JointJ=453632   IsCurved=No   GUID=d6a6a61b-28b0-4d21-980f-c48d1a1facb4
   Frame=510078   JointI=453619   JointJ=453621   IsCurved=No   GUID=68f3426b-fbf7-4068-8a1a-6e168ca2776d
   Frame=510079   JointI=453632   JointJ=453633   IsCurved=No   GUID=1582cd42-74be-48a8-87cb-6368ba15af86
   Frame=510080   JointI=453621   JointJ=453623   IsCurved=No   GUID=102c8207-c5a0-4ccc-8a3c-1f8c0d8185f0
   Frame=510081   JointI=453633   JointJ=453634   IsCurved=No   GUID=8b71baec-5b46-4b83-8d32-6c1d4730fdd0
   Frame=510082   JointI=453623   JointJ=453625   IsCurved=No   GUID=368bfac9-bc18-4ab2-aed3-54038d67150c
   Frame=510083   JointI=453634   JointJ=453635   IsCurved=No   GUID=1eabb229-53b5-4fd7-a88c-8e5da8b971be
   Frame=510084   JointI=453625   JointJ=453627   IsCurved=No   GUID=610cb030-0283-4166-a9ee-ec417a73840b
   Frame=510085   JointI=453635   JointJ=453636   IsCurved=No   GUID=f79880c2-5d08-4e9b-a578-29448b23e60b
   Frame=510086   JointI=453627   JointJ=453629   IsCurved=No   GUID=94abd585-e05f-4dbf-ad60-4a7c73607810
   Frame=510087   JointI=453636   JointJ=453637   IsCurved=No   GUID=5de3e5a2-a4d7-4582-8a4c-8228fad9d932
   Frame=510088   JointI=453629   JointJ=453631   IsCurved=No   GUID=3ceb59ab-3959-489d-b0e1-2f0d32eb1ddd
   Frame=510089   JointI=453637   JointJ=453638   IsCurved=No   GUID=b236c202-dc23-4783-a919-1e6110651534
   Frame=510090   JointI=453631   JointJ=453648   IsCurved=No   GUID=e6935368-5595-4980-b415-449cd1e41aeb
   Frame=510091   JointI=453638   JointJ=453649   IsCurved=No   GUID=bbf97f47-a8fc-4185-bf4e-22c2f2a0dffc
   Frame=510092   JointI=453619   JointJ=453650   IsCurved=No   GUID=7c4ac8c1-688a-4f9f-889a-ed62a56470bf
   Frame=510093   JointI=453650   JointJ=453651   IsCurved=No   GUID=494c88bb-67bc-4c61-9990-75a62f0dbb93
   Frame=510094   JointI=453651   JointJ=453652   IsCurved=No   GUID=e866f979-c820-478a-b91b-e23bb9090bb2
   Frame=510095   JointI=453621   JointJ=453653   IsCurved=No   GUID=767e9365-e408-4c45-9af5-098841dd0cba
   Frame=510096   JointI=453653   JointJ=453654   IsCurved=No   GUID=2f40dee3-586f-400e-9229-1fba5fa091aa
   Frame=510097   JointI=453654   JointJ=453655   IsCurved=No   GUID=1dc9bf98-5d68-4779-94de-e66620b0177a
   Frame=510098   JointI=453623   JointJ=453656   IsCurved=No   GUID=9cd6fbbc-0d48-4263-984e-ec562c7388ce
   Frame=510099   JointI=453656   JointJ=453657   IsCurved=No   GUID=9f568b21-71da-4e40-bb16-c83d983b2925
   Frame=510100   JointI=453657   JointJ=453658   IsCurved=No   GUID=9dcb626c-6af7-41a4-b968-f8a2c7876e31
   Frame=510101   JointI=453625   JointJ=453659   IsCurved=No   GUID=a75f1571-099c-4a80-909e-06f601611a33
   Frame=510102   JointI=453659   JointJ=453660   IsCurved=No   GUID=3037d6c2-83ef-4320-87e4-b1d0c53b679e
   Frame=510103   JointI=453660   JointJ=453661   IsCurved=No   GUID=15c7a0ec-d555-4590-a84a-9f193e0a071a
   Frame=510104   JointI=453627   JointJ=453662   IsCurved=No   GUID=6da44a34-8dc0-4991-8f39-28136bca9524
   Frame=510105   JointI=453662   JointJ=453663   IsCurved=No   GUID=421cefc1-8a75-42c1-9dd5-4ff835b7511a
   Frame=510106   JointI=453663   JointJ=453664   IsCurved=No   GUID=067da0d8-e710-4dfb-a7b7-546ce11d3019
   Frame=510107   JointI=453629   JointJ=453665   IsCurved=No   GUID=0e8aa5a3-029f-423b-b9d0-512b8d3a0614
   Frame=510108   JointI=453665   JointJ=453666   IsCurved=No   GUID=ba455334-4573-48c3-bc9a-200c8560cdab
   Frame=510109   JointI=453666   JointJ=453667   IsCurved=No   GUID=9b4ff6a0-01fd-44fd-8bed-2a98ac0d80cc
   Frame=510110   JointI=453631   JointJ=453668   IsCurved=No   GUID=44d128f0-ba74-4419-a0fd-234e5d9791af
   Frame=510111   JointI=453668   JointJ=453669   IsCurved=No   GUID=128dd2b8-ec44-4138-9d48-39c2d6f90dcf
   Frame=510112   JointI=453669   JointJ=453670   IsCurved=No   GUID=05affd85-efac-4f31-be25-66c65935d96b
   Frame=510113   JointI=453632   JointJ=453671   IsCurved=No   GUID=9a6dfb91-a43c-4559-843e-1a368706fd8f
   Frame=510114   JointI=453671   JointJ=453672   IsCurved=No   GUID=bf13e64e-10ef-48c8-8984-9275ea3df029
   Frame=510115   JointI=453633   JointJ=453673   IsCurved=No   GUID=c7eb8789-5133-420c-88ed-23906ee19d32
   Frame=510116   JointI=453673   JointJ=453674   IsCurved=No   GUID=e297aea1-d217-4708-9fb1-f9325d511157
   Frame=510117   JointI=453634   JointJ=453675   IsCurved=No   GUID=d9831038-6daa-4121-b46f-9dea76515f45
   Frame=510118   JointI=453675   JointJ=453676   IsCurved=No   GUID=4c06da9a-dcfb-47b4-a096-eccac86695f4
   Frame=510119   JointI=453635   JointJ=453677   IsCurved=No   GUID=59c723c8-ffcd-42fb-afe3-02518912194f
   Frame=510120   JointI=453677   JointJ=453678   IsCurved=No   GUID=ae72c483-f0dd-4167-a369-267e4b57ec00
   Frame=510121   JointI=453636   JointJ=453679   IsCurved=No   GUID=b344380c-1521-483b-9000-e6834a4de080
   Frame=510122   JointI=453679   JointJ=453680   IsCurved=No   GUID=97a7f92c-30be-4b81-b426-46701b1076f3
   Frame=510123   JointI=453637   JointJ=453681   IsCurved=No   GUID=e36977ec-838b-4cf0-9bfb-1541d75caad9
   Frame=510124   JointI=453681   JointJ=453682   IsCurved=No   GUID=948b7f4b-705d-4b71-9898-b85773a72076
   Frame=510125   JointI=453638   JointJ=453683   IsCurved=No   GUID=a710900e-5ded-4483-acfa-40fd12742cf2
   Frame=510126   JointI=453683   JointJ=453684   IsCurved=No   GUID=e389202d-3104-4bc6-9201-61a2707dac4a
   Frame=510127   JointI=453650   JointJ=453653   IsCurved=No   GUID=77f169ce-e09f-4134-b120-5142f0b25bda
   Frame=510128   JointI=453653   JointJ=453656   IsCurved=No   GUID=ab07f67f-1e76-4728-abe1-54e5f571aaf5
   Frame=510129   JointI=453656   JointJ=453659   IsCurved=No   GUID=ad3368f5-2da2-4001-ac66-91d26c561392
   Frame=510130   JointI=453659   JointJ=453662   IsCurved=No   GUID=6e6536c4-77b3-447a-ace8-708d4720f975
   Frame=510131   JointI=453662   JointJ=453665   IsCurved=No   GUID=dcbbec22-650e-4b53-bf62-228ccda076c7
   Frame=510132   JointI=453665   JointJ=453668   IsCurved=No   GUID=4c9c83e8-ffc1-4b5e-b578-1e53260419e0
 
TABLE:  "COORDINATE SYSTEMS"
   Name=GLOBAL   Type=Cartesian   X=0   Y=0   Z=0   AboutZ=0   AboutY=0   AboutX=0
 
TABLE:  "DATABASE DOCUMENTATION"
 
TABLE:  "DATABASE FORMAT TYPES"
   UnitsCurr=Yes   OverrideE=No
 
TABLE:  "FRAME AUTO MESH ASSIGNMENTS"
   Frame=510055   AutoMesh=Yes   AtJoints=Yes   AtFrames=No   NumSegments=0   MaxLength=0   MaxDegrees=0
   Frame=510056   AutoMesh=Yes   AtJoints=Yes   AtFrames=No   NumSegments=0   MaxLength=0   MaxDegrees=0
   Frame=510057   AutoMesh=Yes   AtJoints=Yes   AtFrames=No   NumSegments=0   MaxLength=0   MaxDegrees=0
   Frame=510058   AutoMesh=Yes   AtJoints=Yes   AtFrames=No   NumSegments=0   MaxLength=0   MaxDegrees=0
   Frame=510059   AutoMesh=Yes   AtJoints=Yes   AtFrames=No   NumSegments=0   MaxLength=0   MaxDegrees=0
   Frame=510060   AutoMesh=Yes   AtJoints=Yes   AtFrames=No   NumSegments=0   MaxLength=0   MaxDegrees=0
   Frame=510061   AutoMesh=Yes   AtJoints=Yes   AtFrames=No   NumSegments=0   MaxLength=0   MaxDegrees=0
   Frame=510062   AutoMesh=Yes   AtJoints=Yes   AtFrames=No   NumSegments=0   MaxLength=0   MaxDegrees=0
   Frame=510063   AutoMesh=Yes   AtJoints=Yes   AtFrames=No   NumSegments=0   MaxLength=0   MaxDegrees=0
   Frame=510064   AutoMesh=Yes   AtJoints=Yes   AtFrames=No   NumSegments=0   MaxLength=0   MaxDegrees=0
   Frame=510065   AutoMesh=Yes   AtJoints=Yes   AtFrames=No   NumSegments=0   MaxLength=0   MaxDegrees=0
   Frame=510066   AutoMesh=Yes   AtJoints=Yes   AtFrames=No   NumSegments=0   MaxLength=0   MaxDegrees=0
   Frame=510067   AutoMesh=Yes   AtJoints=Yes   AtFrames=No   NumSegments=0   MaxLength=0   MaxDegrees=0
   Frame=510068   AutoMesh=Yes   AtJoints=Yes   AtFrames=No   NumSegments=0   MaxLength=0   MaxDegrees=0
   Frame=510069   AutoMesh=Yes   AtJoints=Yes   AtFrames=No   NumSegments=0   MaxLength=0   MaxDegrees=0
   Frame=510070   AutoMesh=Yes   AtJoints=Yes   AtFrames=No   NumSegments=0   MaxLength=0   MaxDegrees=0
   Frame=510071   AutoMesh=Yes   AtJoints=Yes   AtFrames=No   NumSegments=0   MaxLength=0   MaxDegrees=0
   Frame=510072   AutoMesh=Yes   AtJoints=Yes   AtFrames=No   NumSegments=0   MaxLength=0   MaxDegrees=0
   Frame=510073   AutoMesh=Yes   AtJoints=Yes   AtFrames=No   NumSegments=0   MaxLength=0   MaxDegrees=0
   Frame=510074   AutoMesh=Yes   AtJoints=Yes   AtFrames=No   NumSegments=0   MaxLength=0   MaxDegrees=0
# ... 58 like lines cut
 
TABLE:  "FRAME DESIGN PROCEDURES"
   Frame=510055   DesignProc="From Material"
   Frame=510056   DesignProc="From Material"
   Frame=510057   DesignProc="From Material"
   Frame=510058   DesignProc="From Material"
   Frame=510059   DesignProc="From Material"
   Frame=510060   DesignProc="From Material"
   Frame=510061   DesignProc="From Material"
   Frame=510062   DesignProc="From Material"
   Frame=510063   DesignProc="From Material"
   Frame=510064   DesignProc="From Material"
   Frame=510065   DesignProc="From Material"
   Frame=510066   DesignProc="From Material"
   Frame=510067   DesignProc="From Material"
   Frame=510068   DesignProc="From Material"
   Frame=510069   DesignProc="From Material"
   Frame=510070   DesignProc="From Material"
   Frame=510071   DesignProc="From Material"
   Frame=510072   DesignProc="From Material"
   Frame=510073   DesignProc="From Material"
   Frame=510074   DesignProc="From Material"
# ... 18 like lines cut
   Frame=510093   DesignProc="No Design"
   Frame=510094   DesignProc="No Design"
   Frame=510095   DesignProc="From Material"
   Frame=510096   DesignProc="No Design"
   Frame=510097   DesignProc="No Design"
   Frame=510098   DesignProc="From Material"
   Frame=510099   DesignProc="No Design"
   Frame=510100   DesignProc="No Design"
   Frame=510101   DesignProc="From Material"
   Frame=510102   DesignProc="No Design"
   Frame=510103   DesignProc="No Design"
   Frame=510104   DesignProc="From Material"
   Frame=510105   DesignProc="No Design"
   Frame=510106   DesignProc="No Design"
   Frame=510107   DesignProc="From Material"
   Frame=510108   DesignProc="No Design"
   Frame=510109   DesignProc="No Design"
   Frame=510110   DesignProc="From Material"
   Frame=510111   DesignProc="No Design"
   Frame=510112   DesignProc="No Design"
   Frame=510113   DesignProc="No Design"
   Frame=510114   DesignProc="No Design"
   Frame=510115   DesignProc="No Design"
   Frame=510116   DesignProc="No Design"
   Frame=510117   DesignProc="No Design"
   Frame=510118   DesignProc="No Design"
   Frame=510119   DesignProc="No Design"
   Frame=510120   DesignProc="No Design"
   Frame=510121   DesignProc="No Design"
   Frame=510122   DesignProc="No Design"
   Frame=510123   DesignProc="No Design"
   Frame=510124   DesignProc="No Design"
   Frame=510125   DesignProc="No Design"
   Frame=510126   DesignProc="No Design"
   Frame=510127   DesignProc="From Material"
   Frame=510128   DesignProc="From Material"
   Frame=510129   DesignProc="From Material"
   Frame=510130   DesignProc="From Material"
   Frame=510131   DesignProc="From Material"
   Frame=510132   DesignProc="From Material"
 
TABLE:  "FRAME LOAD TRANSFER OPTIONS"
   Frame=510055   Transfer=Yes
   Frame=510056   Transfer=Yes
   Frame=510057   Transfer=Yes
   Frame=510058   Transfer=Yes
   Frame=510059   Transfer=Yes
   Frame=510060   Transfer=Yes
   Frame=510061   Transfer=Yes
   Frame=510062   Transfer=Yes
   Frame=510063   Transfer=Yes
   Frame=510064   Transfer=Yes
   Frame=510065   Transfer=Yes
   Frame=510066   Transfer=Yes
   Frame=510067   Transfer=Yes
   Frame=510068   Transfer=Yes
   Frame=510069   Transfer=Yes
   Frame=510070   Transfer=Yes
   Frame=510071   Transfer=Yes
   Frame=510072   Transfer=Yes
   Frame=510073   Transfer=Yes
   Frame=510074   Transfer=Yes
# ... 58 like lines cut
 
TABLE:  "FRAME LOCAL AXES ASSIGNMENTS 1 - TYPICAL"
   Frame=510092   Angle=90
   Frame=510095   Angle=90
   Frame=510098   Angle=90
   Frame=510101   Angle=90
   Frame=510104   Angle=90
   Frame=510107   Angle=90
   Frame=510110   Angle=90
 
TABLE:  "FRAME OUTPUT STATION ASSIGNMENTS"
   Frame=510055   StationType=MaxStaSpcg   MaxStaSpcg=0.5   AddAtElmInt=Yes   AddAtPtLoad=Yes
   Frame=510056   StationType=MaxStaSpcg   MaxStaSpcg=0.5   AddAtElmInt=Yes   AddAtPtLoad=Yes
   Frame=510057   StationType=MaxStaSpcg   MaxStaSpcg=0.5   AddAtElmInt=Yes   AddAtPtLoad=Yes
   Frame=510058   StationType=MaxStaSpcg   MaxStaSpcg=0.5   AddAtElmInt=Yes   AddAtPtLoad=Yes
   Frame=510059   StationType=MaxStaSpcg   MaxStaSpcg=0.5   AddAtElmInt=Yes   AddAtPtLoad=Yes
   Frame=510060   StationType=MaxStaSpcg   MaxStaSpcg=0.5   AddAtElmInt=Yes   AddAtPtLoad=Yes
   Frame=510061   StationType=MaxStaSpcg   MaxStaSpcg=0.5   AddAtElmInt=Yes   AddAtPtLoad=Yes
   Frame=510062   StationType=MaxStaSpcg   MaxStaSpcg=0.5   AddAtElmInt=Yes   AddAtPtLoad=Yes
   Frame=510063   StationType=MaxStaSpcg   MaxStaSpcg=0.5   AddAtElmInt=Yes   AddAtPtLoad=Yes
   Frame=510064   StationType=MaxStaSpcg   MaxStaSpcg=0.5   AddAtElmInt=Yes   AddAtPtLoad=Yes
   Frame=510065   StationType=MaxStaSpcg   MaxStaSpcg=0.5   AddAtElmInt=Yes   AddAtPtLoad=Yes
   Frame=510066   StationType=MaxStaSpcg   MaxStaSpcg=0.5   AddAtElmInt=Yes   AddAtPtLoad=Yes
   Frame=510067   StationType=MaxStaSpcg   MaxStaSpcg=0.5   AddAtElmInt=Yes   AddAtPtLoad=Yes
   Frame=510068   StationType=MaxStaSpcg   MaxStaSpcg=0.5   AddAtElmInt=Yes   AddAtPtLoad=Yes
   Frame=510069   StationType=MaxStaSpcg   MaxStaSpcg=0.5   AddAtElmInt=Yes   AddAtPtLoad=Yes
   Frame=510070   StationType=MaxStaSpcg   MaxStaSpcg=0.5   AddAtElmInt=Yes   AddAtPtLoad=Yes
   Frame=510071   StationType=MaxStaSpcg   MaxStaSpcg=0.5   AddAtElmInt=Yes   AddAtPtLoad=Yes
   Frame=510072   StationType=MaxStaSpcg   MaxStaSpcg=0.5   AddAtElmInt=Yes   AddAtPtLoad=Yes
   Frame=510073   StationType=MaxStaSpcg   MaxStaSpcg=0.5   AddAtElmInt=Yes   AddAtPtLoad=Yes
   Frame=510074   StationType=MaxStaSpcg   MaxStaSpcg=0.5   AddAtElmInt=Yes   AddAtPtLoad=Yes
# ... 17 like lines cut
   Frame=510092   StationType=MinNumSta   MinNumSta=3   AddAtElmInt=Yes   AddAtPtLoad=Yes
   Frame=510093   StationType=MinNumSta   MinNumSta=3   AddAtElmInt=Yes   AddAtPtLoad=Yes
   Frame=510094   StationType=MinNumSta   MinNumSta=3   AddAtElmInt=Yes   AddAtPtLoad=Yes
   Frame=510095   StationType=MinNumSta   MinNumSta=3   AddAtElmInt=Yes   AddAtPtLoad=Yes
   Frame=510096   StationType=MinNumSta   MinNumSta=3   AddAtElmInt=Yes   AddAtPtLoad=Yes
   Frame=510097   StationType=MinNumSta   MinNumSta=3   AddAtElmInt=Yes   AddAtPtLoad=Yes
   Frame=510098   StationType=MinNumSta   MinNumSta=3   AddAtElmInt=Yes   AddAtPtLoad=Yes
   Frame=510099   StationType=MinNumSta   MinNumSta=3   AddAtElmInt=Yes   AddAtPtLoad=Yes
   Frame=510100   StationType=MinNumSta   MinNumSta=3   AddAtElmInt=Yes   AddAtPtLoad=Yes
   Frame=510101   StationType=MinNumSta   MinNumSta=3   AddAtElmInt=Yes   AddAtPtLoad=Yes
   Frame=510102   StationType=MinNumSta   MinNumSta=3   AddAtElmInt=Yes   AddAtPtLoad=Yes
   Frame=510103   StationType=MinNumSta   MinNumSta=3   AddAtElmInt=Yes   AddAtPtLoad=Yes
   Frame=510104   StationType=MinNumSta   MinNumSta=3   AddAtElmInt=Yes   AddAtPtLoad=Yes
   Frame=510105   StationType=MinNumSta   MinNumSta=3   AddAtElmInt=Yes   AddAtPtLoad=Yes
   Frame=510106   StationType=MinNumSta   MinNumSta=3   AddAtElmInt=Yes   AddAtPtLoad=Yes
   Frame=510107   StationType=MinNumSta   MinNumSta=3   AddAtElmInt=Yes   AddAtPtLoad=Yes
   Frame=510108   StationType=MinNumSta   MinNumSta=3   AddAtElmInt=Yes   AddAtPtLoad=Yes
   Frame=510109   StationType=MinNumSta   MinNumSta=3   AddAtElmInt=Yes   AddAtPtLoad=Yes
   Frame=510110   StationType=MinNumSta   MinNumSta=3   AddAtElmInt=Yes   AddAtPtLoad=Yes
   Frame=510111   StationType=MinNumSta   MinNumSta=3   AddAtElmInt=Yes   AddAtPtLoad=Yes
# ... 15 like lines cut
   Frame=510127   StationType=MaxStaSpcg   MaxStaSpcg=0.5   AddAtElmInt=Yes   AddAtPtLoad=Yes
   Frame=510128   StationType=MaxStaSpcg   MaxStaSpcg=0.5   AddAtElmInt=Yes   AddAtPtLoad=Yes
   Frame=510129   StationType=MaxStaSpcg   MaxStaSpcg=0.5   AddAtElmInt=Yes   AddAtPtLoad=Yes
   Frame=510130   StationType=MaxStaSpcg   MaxStaSpcg=0.5   AddAtElmInt=Yes   AddAtPtLoad=Yes
   Frame=510131   StationType=MaxStaSpcg   MaxStaSpcg=0.5   AddAtElmInt=Yes   AddAtPtLoad=Yes
   Frame=510132   StationType=MaxStaSpcg   MaxStaSpcg=0.5   AddAtElmInt=Yes   AddAtPtLoad=Yes
 
TABLE:  "FRAME SECTION ASSIGNMENTS"
   Frame=510055   AutoSelect=N.A.   AnalSect=TB   MatProp=Default
   Frame=510056   AutoSelect=N.A.   AnalSect=TB   MatProp=Default
   Frame=510057   AutoSelect=N.A.   AnalSect=TB   MatProp=Default
   Frame=510058   AutoSelect=N.A.   AnalSect=TB   MatProp=Default
   Frame=510059   AutoSelect=N.A.   AnalSect=TB   MatProp=Default
   Frame=510060   AutoSelect=N.A.   AnalSect=TB   MatProp=Default
   Frame=510061   AutoSelect=N.A.   AnalSect=TB   MatProp=Default
   Frame=510062   AutoSelect=N.A.   AnalSect=TB   MatProp=Default
   Frame=510063   AutoSelect=N.A.   AnalSect=TB   MatProp=Default
   Frame=510064   AutoSelect=N.A.   AnalSect=TB   MatProp=Default
   Frame=510065   AutoSelect=N.A.   AnalSect=TB   MatProp=Default
   Frame=510066   AutoSelect=N.A.   AnalSect=TB   MatProp=Default
   Frame=510067   AutoSelect=N.A.   AnalSect=TB   MatProp=Default
   Frame=510068   AutoSelect=N.A.   AnalSect=TB   MatProp=Default
   Frame=510069   AutoSelect=N.A.   AnalSect=TB   MatProp=Default
   Frame=510070   AutoSelect=N.A.   AnalSect=TB   MatProp=Default
   Frame=510071   AutoSelect=N.A.   AnalSect=TB   MatProp=Default
   Frame=510072   AutoSelect=N.A.   AnalSect=TB   MatProp=Default
   Frame=510073   AutoSelect=N.A.   AnalSect=TB   MatProp=Default
   Frame=510074   AutoSelect=N.A.   AnalSect=TB   MatProp=Default
   Frame=510075   AutoSelect=N.A.   AnalSect=TB   MatProp=Default
   Frame=510076   AutoSelect=N.A.   AnalSect=LB   MatProp=Default
   Frame=510077   AutoSelect=N.A.   AnalSect=LB   MatProp=Default
   Frame=510078   AutoSelect=N.A.   AnalSect=LB   MatProp=Default
   Frame=510079   AutoSelect=N.A.   AnalSect=LB   MatProp=Default
   Frame=510080   AutoSelect=N.A.   AnalSect=LB   MatProp=Default
   Frame=510081   AutoSelect=N.A.   AnalSect=LB   MatProp=Default
   Frame=510082   AutoSelect=N.A.   AnalSect=LB   MatProp=Default
   Frame=510083   AutoSelect=N.A.   AnalSect=LB   MatProp=Default
   Frame=510084   AutoSelect=N.A.   AnalSect=LB   MatProp=Default
   Frame=510085   AutoSelect=N.A.   AnalSect=LB   MatProp=Default
   Frame=510086   AutoSelect=N.A.   AnalSect=LB   MatProp=Default
   Frame=510087   AutoSelect=N.A.   AnalSect=LB   MatProp=Default
   Frame=510088   AutoSelect=N.A.   AnalSect=LB   MatProp=Default
   Frame=510089   AutoSelect=N.A.   AnalSect=LB   MatProp=Default
   Frame=510090   AutoSelect=N.A.   AnalSect=LB   MatProp=Default
   Frame=510091   AutoSelect=N.A.   AnalSect=LB   MatProp=Default
   Frame=510092   AutoSelect=N.A.   AnalSect=EB   MatProp=Default
   Frame=510093   AutoSelect=N.A.   AnalSect=Piles   MatProp=Default
   Frame=510094   AutoSelect=N.A.   AnalSect=Piles   MatProp=Default
   Frame=510095   AutoSelect=N.A.   AnalSect=EB   MatProp=Default
   Frame=510096   AutoSelect=N.A.   AnalSect=Piles   MatProp=Default
   Frame=510097   AutoSelect=N.A.   AnalSect=Piles   MatProp=Default
   Frame=510098   AutoSelect=N.A.   AnalSect=EB   MatProp=Default
   Frame=510099   AutoSelect=N.A.   AnalSect=Piles   MatProp=Default
   Frame=510100   AutoSelect=N.A.   AnalSect=Piles   MatProp=Default
   Frame=510101   AutoSelect=N.A.   AnalSect=EB   MatProp=Default
   Frame=510102   AutoSelect=N.A.   AnalSect=Piles   MatProp=Default
   Frame=510103   AutoSelect=N.A.   AnalSect=Piles   MatProp=Default
   Frame=510104   AutoSelect=N.A.   AnalSect=EB   MatProp=Default
   Frame=510105   AutoSelect=N.A.   AnalSect=Piles   MatProp=Default
   Frame=510106   AutoSelect=N.A.   AnalSect=Piles   MatProp=Default
   Frame=510107   AutoSelect=N.A.   AnalSect=EB   MatProp=Default
   Frame=510108   AutoSelect=N.A.   AnalSect=Piles   MatProp=Default
   Frame=510109   AutoSelect=N.A.   AnalSect=Piles   MatProp=Default
   Frame=510110   AutoSelect=N.A.   AnalSect=EB   MatProp=Default
   Frame=510111   AutoSelect=N.A.   AnalSect=Piles   MatProp=Default
   Frame=510112   AutoSelect=N.A.   AnalSect=Piles   MatProp=Default
   Frame=510113   AutoSelect=N.A.   AnalSect=Piles   MatProp=Default
   Frame=510114   AutoSelect=N.A.   AnalSect=Piles   MatProp=Default
   Frame=510115   AutoSelect=N.A.   AnalSect=Piles   MatProp=Default
   Frame=510116   AutoSelect=N.A.   AnalSect=Piles   MatProp=Default
   Frame=510117   AutoSelect=N.A.   AnalSect=Piles   MatProp=Default
   Frame=510118   AutoSelect=N.A.   AnalSect=Piles   MatProp=Default
   Frame=510119   AutoSelect=N.A.   AnalSect=Piles   MatProp=Default
   Frame=510120   AutoSelect=N.A.   AnalSect=Piles   MatProp=Default
   Frame=510121   AutoSelect=N.A.   AnalSect=Piles   MatProp=Default
   Frame=510122   AutoSelect=N.A.   AnalSect=Piles   MatProp=Default
   Frame=510123   AutoSelect=N.A.   AnalSect=Piles   MatProp=Default
   Frame=510124   AutoSelect=N.A.   AnalSect=Piles   MatProp=Default
   Frame=510125   AutoSelect=N.A.   AnalSect=Piles   MatProp=Default
   Frame=510126   AutoSelect=N.A.   AnalSect=Piles   MatProp=Default
   Frame=510127   AutoSelect=N.A.   AnalSect=EB-1   MatProp=Default
   Frame=510128   AutoSelect=N.A.   AnalSect=EB-1   MatProp=Default
   Frame=510129   AutoSelect=N.A.   AnalSect=EB-1   MatProp=Default
   Frame=510130   AutoSelect=N.A.   AnalSect=EB-1   MatProp=Default
   Frame=510131   AutoSelect=N.A.   AnalSect=EB-1   MatProp=Default
   Frame=510132   AutoSelect=N.A.   AnalSect=EB-1   MatProp=Default
 
TABLE:  "FRAME SECTION PROPERTIES 01 - GENERAL"
   SectionName=EB   Material=BTCT   Shape=Rectangular   t3=1.2   t2=0.5   Area=0.6   TorsConst=0.0369079665195795   I33=0.072   I22=0.0125   I23=0   AS2=0.5   AS3=0.5   S33Top=0.12   S33Bot=0.12   S22Left=0.05   S22Right=0.05   Z33=0.18 _
        Z22=0.075   R33=0.346410161513775   R22=0.144337567297406   CGOffset3=0   CGOffset2=0   EccV2=0   EccV3=0   Cw=0   Color=Magenta   FromFile=No   AMod=1   A2Mod=1   A3Mod=1   JMod=1   I2Mod=1   I3Mod=1   MMod=1   WMod=1
   SectionName=EB-1   Material=BTCT   Shape=Rectangular   t3=0.5   t2=0.5   Area=0.25   TorsConst=0.00880208333333333   I33=0.00520833333333333   I22=0.00520833333333333   I23=0   AS2=0.208333333333333   AS3=0.208333333333333 _
        S33Top=0.0208333333333333   S33Bot=0.0208333333333333   S22Left=0.0208333333333333   S22Right=0.0208333333333333   Z33=0.03125   Z22=0.03125   R33=0.144337567297406   R22=0.144337567297406   CGOffset3=0   CGOffset2=0   EccV2=0 _
        EccV3=0   Cw=0   Color=Yellow   FromFile=No   AMod=1   A2Mod=1   A3Mod=1   JMod=1   I2Mod=1   I3Mod=1   MMod=1   WMod=1
   SectionName=LB   Material=BTCT   Shape=Rectangular   t3=0.5   t2=0.5   Area=0.25   TorsConst=0.00880208333333333   I33=0.00520833333333333   I22=0.00520833333333333   I23=0   AS2=0.208333333333333   AS3=0.208333333333333 _
        S33Top=0.0208333333333333   S33Bot=0.0208333333333333   S22Left=0.0208333333333333   S22Right=0.0208333333333333   Z33=0.03125   Z22=0.03125   R33=0.144337567297406   R22=0.144337567297406   CGOffset3=0   CGOffset2=0   EccV2=0 _
        EccV3=0   Cw=0   Color=Red   FromFile=No   AMod=1   A2Mod=1   A3Mod=1   JMod=1   I2Mod=1   I3Mod=1   MMod=1   WMod=1
   SectionName=Piles   Material=BTCTCOC   Shape=Pipe   t3=0.3   tw=0.06   Area=0.045238934211693   TorsConst=0.000692155693438903   I33=0.000346077846719452   I22=0.000346077846719452   I23=0   AS2=0.0235427106611872 _
        AS3=0.0235427106611872   S33Top=0.00230718564479634   S33Bot=0.00230718564479634   S22Left=0.00230718564479634   S22Right=0.00230718564479634   Z33=0.003528   Z22=0.003528   R33=0.0874642784226795   R22=0.0874642784226795 _
        CGOffset3=0   CGOffset2=0   EccV2=0   EccV3=0   Cw=0   Color=Gray8Dark   FromFile=No   AMod=1   A2Mod=1   A3Mod=1   JMod=1   I2Mod=1   I3Mod=1   MMod=1   WMod=1
   SectionName=TB   Material=BTCT   Shape=Rectangular   t3=0.5   t2=0.5   Area=0.25   TorsConst=0.00880208333333333   I33=0.00520833333333333   I22=0.00520833333333333   I23=0   AS2=0.208333333333333   AS3=0.208333333333333 _
        S33Top=0.0208333333333333   S33Bot=0.0208333333333333   S22Left=0.0208333333333333   S22Right=0.0208333333333333   Z33=0.03125   Z22=0.03125   R33=0.144337567297406   R22=0.144337567297406   CGOffset3=0   CGOffset2=0   EccV2=0 _
        EccV3=0   Cw=0   Color=Cyan   FromFile=No   AMod=1   A2Mod=1   A3Mod=1   JMod=1   I2Mod=1   I3Mod=1   MMod=1   WMod=1
 
TABLE:  "FRAME SECTION PROPERTIES 02 - CONCRETE COLUMN"
   SectionName=EB   RebarMatL=A706   RebarMatC=A706   ReinfConfig=Rectangular   LatReinf=Ties   Cover=0.05   NumBars3Dir=2   NumBars2Dir=2   BarSizeL=12d   BarSizeC=10d   SpacingC=0.1   NumCBars2=2   NumCBars3=2   ReinfType=Design
   SectionName=EB-1   RebarMatL=A706   RebarMatC=A706   ReinfConfig=Rectangular   LatReinf=Ties   Cover=0.05   NumBars3Dir=2   NumBars2Dir=2   BarSizeL=12d   BarSizeC=10d   SpacingC=0.1   NumCBars2=2   NumCBars3=2   ReinfType=Design
   SectionName=LB   RebarMatL=A706   RebarMatC=A706   ReinfConfig=Rectangular   LatReinf=Ties   Cover=0.05   NumBars3Dir=2   NumBars2Dir=2   BarSizeL=12d   BarSizeC=10d   SpacingC=0.1   NumCBars2=2   NumCBars3=2   ReinfType=Design
   SectionName=TB   RebarMatL=A706   RebarMatC=A706   ReinfConfig=Rectangular   LatReinf=Ties   Cover=0.05   NumBars3Dir=2   NumBars2Dir=2   BarSizeL=12d   BarSizeC=10d   SpacingC=0.1   NumCBars2=2   NumCBars3=2   ReinfType=Design
 
TABLE:  "FRAME SECTION PROPERTIES 13 - TIME DEPENDENT"
   SectionName=EB   TypeSize=Auto   AutoSFSize=1
   SectionName=EB-1   TypeSize=Auto   AutoSFSize=1
   SectionName=LB   TypeSize=Auto   AutoSFSize=1
   SectionName=Piles   TypeSize=Auto   AutoSFSize=1
   SectionName=TB   TypeSize=Auto   AutoSFSize=1
 
TABLE:  "FUNCTION - PLOT FUNCTIONS"
   PlotFunc="Input Energy"   Type=Energy   Component=Input   Mode=All
 
TABLE:  "FUNCTION - POWER SPECTRAL DENSITY - USER"
   Name=UNIFPSD   Frequency=0   Value=1
   Name=UNIFPSD   Frequency=1   Value=1
 
TABLE:  "FUNCTION - RESPONSE SPECTRUM - USER"
   Name=UNIFRS   Period=0   Accel=1   FuncDamp=0.05
   Name=UNIFRS   Period=1   Accel=1
 
TABLE:  "FUNCTION - STEADY STATE - USER"
   Name=UNIFSS   Frequency=0   Value=1
   Name=UNIFSS   Frequency=1   Value=1
 
TABLE:  "FUNCTION - TIME HISTORY - USER"
   Name=RAMPTH   Time=0   Value=0
   Name=RAMPTH   Time=1   Value=1
   Name=RAMPTH   Time=4   Value=1
   Name=UNIFTH   Time=0   Value=1
   Name=UNIFTH   Time=1   Value=1
 
TABLE:  "GRID LINES"
   CoordSys=GLOBAL   AxisDir=X   GridID=A   XRYZCoord=-10   LineType=Primary   LineColor=Gray8Dark   Visible=Yes   BubbleLoc=End   AllVisible=Yes   BubbleSize=0.9375
   CoordSys=GLOBAL   AxisDir=X   GridID=B   XRYZCoord=-9   LineType=Primary   LineColor=Gray8Dark   Visible=Yes   BubbleLoc=End
   CoordSys=GLOBAL   AxisDir=X   GridID=C   XRYZCoord=-4.5   LineType=Primary   LineColor=Gray8Dark   Visible=Yes   BubbleLoc=End
   CoordSys=GLOBAL   AxisDir=X   GridID=D   XRYZCoord=0   LineType=Primary   LineColor=Gray8Dark   Visible=Yes   BubbleLoc=End
   CoordSys=GLOBAL   AxisDir=X   GridID=E   XRYZCoord=4.5   LineType=Primary   LineColor=Gray8Dark   Visible=Yes   BubbleLoc=End
   CoordSys=GLOBAL   AxisDir=X   GridID=F   XRYZCoord=9   LineType=Primary   LineColor=Gray8Dark   Visible=Yes   BubbleLoc=End
   CoordSys=GLOBAL   AxisDir=X   GridID=G   XRYZCoord=10   LineType=Primary   LineColor=Gray8Dark   Visible=Yes   BubbleLoc=End
   CoordSys=GLOBAL   AxisDir=Y   GridID=1   XRYZCoord=-5.2   LineType=Primary   LineColor=Gray8Dark   Visible=Yes   BubbleLoc=Start
   CoordSys=GLOBAL   AxisDir=Y   GridID=2   XRYZCoord=-4.2   LineType=Primary   LineColor=Gray8Dark   Visible=Yes   BubbleLoc=Start
   CoordSys=GLOBAL   AxisDir=Y   GridID=3   XRYZCoord=0   LineType=Primary   LineColor=Gray8Dark   Visible=Yes   BubbleLoc=Start
   CoordSys=GLOBAL   AxisDir=Y   GridID=4   XRYZCoord=4.2   LineType=Primary   LineColor=Gray8Dark   Visible=Yes   BubbleLoc=Start
   CoordSys=GLOBAL   AxisDir=Y   GridID=5   XRYZCoord=4.8   LineType=Primary   LineColor=Gray8Dark   Visible=Yes   BubbleLoc=Start
   CoordSys=GLOBAL   AxisDir=Z   GridID=Z1   XRYZCoord=0   LineType=Primary   LineColor=Gray8Dark   Visible=Yes   BubbleLoc=End
   CoordSys=GLOBAL   AxisDir=Z   GridID=Z2   XRYZCoord=13   LineType=Primary   LineColor=Gray8Dark   Visible=Yes   BubbleLoc=End
 
TABLE:  "GROUPS 1 - DEFINITIONS"
   GroupName=ALL   Selection=Yes   SectionCut=Yes   Steel=Yes   Concrete=Yes   Aluminum=Yes   ColdFormed=Yes   Stage=Yes   Bridge=Yes   AutoSeismic=No   AutoWind=No   SelDesSteel=No   SelDesAlum=No   SelDesCold=No   MassWeight=Yes   Color=Red
   GroupName=Pile   Selection=Yes   SectionCut=Yes   Steel=Yes   Concrete=Yes   Aluminum=Yes   ColdFormed=Yes   Stage=Yes   Bridge=Yes   AutoSeismic=No   AutoWind=No   SelDesSteel=No   SelDesAlum=No   SelDesCold=No   MassWeight=Yes   Color=Gray8Dark
   GroupName=DN   Selection=Yes   SectionCut=Yes   Steel=Yes   Concrete=Yes   Aluminum=Yes   ColdFormed=Yes   Stage=Yes   Bridge=Yes   AutoSeismic=No   AutoWind=No   SelDesSteel=No   SelDesAlum=No   SelDesCold=No   MassWeight=Yes   Color=Yellow
   GroupName=Pile_Toe   Selection=Yes   SectionCut=Yes   Steel=Yes   Concrete=Yes   Aluminum=Yes   ColdFormed=Yes   Stage=Yes   Bridge=Yes   AutoSeismic=No   AutoWind=No   SelDesSteel=No   SelDesAlum=No   SelDesCold=No   MassWeight=Yes   Color=Green
   GroupName=Pile_Bend   Selection=Yes   SectionCut=Yes   Steel=Yes   Concrete=Yes   Aluminum=Yes   ColdFormed=Yes   Stage=Yes   Bridge=Yes   AutoSeismic=No   AutoWind=No   SelDesSteel=No   SelDesAlum=No   SelDesCold=No   MassWeight=Yes   Color=Cyan
   GroupName=Beam   Selection=Yes   SectionCut=Yes   Steel=Yes   Concrete=Yes   Aluminum=Yes   ColdFormed=Yes   Stage=Yes   Bridge=Yes   AutoSeismic=No   AutoWind=No   SelDesSteel=No   SelDesAlum=No   SelDesCold=No   MassWeight=Yes   Color=Blue
   GroupName=Piles   Selection=Yes   SectionCut=Yes   Steel=Yes   Concrete=Yes   Aluminum=Yes   ColdFormed=Yes   Stage=Yes   Bridge=Yes   AutoSeismic=No   AutoWind=No   SelDesSteel=No   SelDesAlum=No   SelDesCold=No   MassWeight=Yes   Color=Cyan
   GroupName=Beams   Selection=Yes   SectionCut=Yes   Steel=Yes   Concrete=Yes   Aluminum=Yes   ColdFormed=Yes   Stage=Yes   Bridge=Yes   AutoSeismic=No   AutoWind=No   SelDesSteel=No   SelDesAlum=No   SelDesCold=No   MassWeight=Yes   Color=Red
 
TABLE:  "GROUPS 2 - ASSIGNMENTS"
 
TABLE:  "JOINT COORDINATES"
   Joint=453618   CoordSys=GLOBAL   CoordType=Cartesian   XorR=-9   Y=-5   Z=0   SpecialJt=No   GUID=a6895237-1672-4cd9-a981-72fbd17bb53c
   Joint=453619   CoordSys=GLOBAL   CoordType=Cartesian   XorR=-9   Y=-2.85   Z=0   SpecialJt=No   GUID=0dbfa89f-4b62-48fa-84a0-edbfed2f7719
   Joint=453620   CoordSys=GLOBAL   CoordType=Cartesian   XorR=-6   Y=-5   Z=0   SpecialJt=No   GUID=c58369c8-c078-4e75-91e5-90e79e00fefb
   Joint=453621   CoordSys=GLOBAL   CoordType=Cartesian   XorR=-6   Y=-2.85   Z=0   SpecialJt=No   GUID=86d613bf-aa15-457d-ae42-e0e0b39e7635
   Joint=453622   CoordSys=GLOBAL   CoordType=Cartesian   XorR=-3   Y=-5   Z=0   SpecialJt=No   GUID=49e84950-75e3-4f20-bccd-de05701be589
   Joint=453623   CoordSys=GLOBAL   CoordType=Cartesian   XorR=-3   Y=-2.85   Z=0   SpecialJt=No   GUID=e0142f09-92ce-449e-ba48-5a8b48e5a9cd
   Joint=453624   CoordSys=GLOBAL   CoordType=Cartesian   XorR=0   Y=-5   Z=0   SpecialJt=No   GUID=cb0e49f9-ed17-4931-b1ce-22eb422827a6
   Joint=453625   CoordSys=GLOBAL   CoordType=Cartesian   XorR=0   Y=-2.85   Z=0   SpecialJt=No   GUID=dd0cccc9-aeb9-46f0-94a9-1177c2a17894
   Joint=453626   CoordSys=GLOBAL   CoordType=Cartesian   XorR=3   Y=-5   Z=0   SpecialJt=No   GUID=088ef33b-9332-401a-995a-140ac6edd9f1
   Joint=453627   CoordSys=GLOBAL   CoordType=Cartesian   XorR=3   Y=-2.85   Z=0   SpecialJt=No   GUID=65e63b6d-5d8e-466e-a5dd-8c975e7123e2
   Joint=453628   CoordSys=GLOBAL   CoordType=Cartesian   XorR=6   Y=-5   Z=0   SpecialJt=No   GUID=b03b193b-d645-4e67-8363-61dd0579cf01
   Joint=453629   CoordSys=GLOBAL   CoordType=Cartesian   XorR=6   Y=-2.85   Z=0   SpecialJt=No   GUID=6fe7febb-2afa-481f-85e7-8ad0eeba31b3
   Joint=453630   CoordSys=GLOBAL   CoordType=Cartesian   XorR=9   Y=-5   Z=0   SpecialJt=No   GUID=8f71d246-c645-4c89-a97b-8f109d906068
   Joint=453631   CoordSys=GLOBAL   CoordType=Cartesian   XorR=9   Y=-2.85   Z=0   SpecialJt=No   GUID=6618d54c-0550-4a1c-b9ac-4ae67fa7e458
   Joint=453632   CoordSys=GLOBAL   CoordType=Cartesian   XorR=-9   Y=2.85   Z=0   SpecialJt=No   GUID=98e723e9-a4a8-4db8-897d-5040c037f44d
   Joint=453633   CoordSys=GLOBAL   CoordType=Cartesian   XorR=-6   Y=2.85   Z=0   SpecialJt=No   GUID=35bd3850-af63-46f2-93d6-3ebfb2eca582
   Joint=453634   CoordSys=GLOBAL   CoordType=Cartesian   XorR=-3   Y=2.85   Z=0   SpecialJt=No   GUID=41eb8d54-aa71-4aaf-a50e-05d2027eadcc
   Joint=453635   CoordSys=GLOBAL   CoordType=Cartesian   XorR=0   Y=2.85   Z=0   SpecialJt=No   GUID=d3f01cc4-44c9-439f-b651-2b9c2542016b
   Joint=453636   CoordSys=GLOBAL   CoordType=Cartesian   XorR=3   Y=2.85   Z=0   SpecialJt=No   GUID=e6588a1e-7b03-488b-ae54-53441c7b6882
   Joint=453637   CoordSys=GLOBAL   CoordType=Cartesian   XorR=6   Y=2.85   Z=0   SpecialJt=No   GUID=09cd0fd6-9ff0-4b5e-b5b6-27889617e37a
   Joint=453638   CoordSys=GLOBAL   CoordType=Cartesian   XorR=9   Y=2.85   Z=0   SpecialJt=No   GUID=efdbfc6a-a5be-4550-870e-d0ec8ec08cae
   Joint=453639   CoordSys=GLOBAL   CoordType=Cartesian   XorR=-9   Y=5   Z=0   SpecialJt=No   GUID=9c7bb149-5534-491c-b586-912519c2265f
   Joint=453640   CoordSys=GLOBAL   CoordType=Cartesian   XorR=-6   Y=5   Z=0   SpecialJt=No   GUID=9990db94-d409-4a80-8f10-64413457a37a
   Joint=453641   CoordSys=GLOBAL   CoordType=Cartesian   XorR=-3   Y=5   Z=0   SpecialJt=No   GUID=49d0bc7a-0800-4703-b36f-c8c227d7934e
   Joint=453642   CoordSys=GLOBAL   CoordType=Cartesian   XorR=0   Y=5   Z=0   SpecialJt=No   GUID=1b8d7e9d-69aa-4252-82d5-fdbca74a4f4b
   Joint=453643   CoordSys=GLOBAL   CoordType=Cartesian   XorR=3   Y=5   Z=0   SpecialJt=No   GUID=aa9d0b0b-1021-4d76-ae2b-6feaa59bf320
   Joint=453644   CoordSys=GLOBAL   CoordType=Cartesian   XorR=6   Y=5   Z=0   SpecialJt=No   GUID=4c854ce6-ba52-41ab-92a8-ebbd677a3c6d
   Joint=453645   CoordSys=GLOBAL   CoordType=Cartesian   XorR=9   Y=5   Z=0   SpecialJt=No   GUID=171faaf4-e897-4966-b5b3-cc0c987b3967
   Joint=453646   CoordSys=GLOBAL   CoordType=Cartesian   XorR=-10   Y=-2.85   Z=0   SpecialJt=No   GUID=88e147bf-67b5-4f9d-b745-6cf036cce4d5
   Joint=453647   CoordSys=GLOBAL   CoordType=Cartesian   XorR=-10   Y=2.85   Z=0   SpecialJt=No   GUID=638193e2-7a6e-4a07-b9b0-c5c9d974af15
   Joint=453648   CoordSys=GLOBAL   CoordType=Cartesian   XorR=10   Y=-2.85   Z=0   SpecialJt=No   GUID=7403e3f8-d434-482a-b628-147737ac72e9
   Joint=453649   CoordSys=GLOBAL   CoordType=Cartesian   XorR=10   Y=2.85   Z=0   SpecialJt=No   GUID=66b2621d-2258-4b43-a104-32f7f0420b42
   Joint=453650   CoordSys=GLOBAL   CoordType=Cartesian   XorR=-9   Y=-2.85   Z=-3   SpecialJt=No   GUID=1518e63b-3516-4c16-8429-57dce1bca570
   Joint=453651   CoordSys=GLOBAL   CoordType=Cartesian   XorR=-9   Y=-2.85   Z=-13.4180229476075   SpecialJt=No   GUID=fceaedea-733d-432a-8bfc-1cadd4c51dda
   Joint=453652   CoordSys=GLOBAL   CoordType=Cartesian   XorR=-9   Y=-2.85   Z=-39   SpecialJt=No   GUID=cb0fcac3-7b7a-4845-96f2-faf425111d2a
   Joint=453653   CoordSys=GLOBAL   CoordType=Cartesian   XorR=-6   Y=-2.85   Z=-3   SpecialJt=No   GUID=d2fd540a-c8e3-451d-aa0f-9184e1855573
   Joint=453654   CoordSys=GLOBAL   CoordType=Cartesian   XorR=-6   Y=-2.85   Z=-13.4180229476075   SpecialJt=No   GUID=8bcc8dc7-42da-43b2-ad22-2384bb9bbbc4
   Joint=453655   CoordSys=GLOBAL   CoordType=Cartesian   XorR=-6   Y=-2.85   Z=-39   SpecialJt=No   GUID=014d4cfb-32e6-4af3-8c16-858976908446
   Joint=453656   CoordSys=GLOBAL   CoordType=Cartesian   XorR=-3   Y=-2.85   Z=-3   SpecialJt=No   GUID=ded8ec8d-a7b0-4f1f-ad49-fef874cfd62a
   Joint=453657   CoordSys=GLOBAL   CoordType=Cartesian   XorR=-3   Y=-2.85   Z=-13.4180229476075   SpecialJt=No   GUID=1da8325b-3b5d-46fc-b0da-365c4b985b9b
   Joint=453658   CoordSys=GLOBAL   CoordType=Cartesian   XorR=-3   Y=-2.85   Z=-39   SpecialJt=No   GUID=d20b7733-5c07-46f2-97c4-11275e722500
   Joint=453659   CoordSys=GLOBAL   CoordType=Cartesian   XorR=0   Y=-2.85   Z=-3   SpecialJt=No   GUID=21ed7601-1096-486c-8785-ea13be31a5e9
   Joint=453660   CoordSys=GLOBAL   CoordType=Cartesian   XorR=0   Y=-2.85   Z=-13.4180229476075   SpecialJt=No   GUID=608b4f90-d912-422e-8a0b-e3ebda194176
   Joint=453661   CoordSys=GLOBAL   CoordType=Cartesian   XorR=0   Y=-2.85   Z=-39   SpecialJt=No   GUID=ea0ed948-cbab-49ec-bc78-bbee594bc6e6
   Joint=453662   CoordSys=GLOBAL   CoordType=Cartesian   XorR=3   Y=-2.85   Z=-3   SpecialJt=No   GUID=5b7915d7-0625-4718-b821-c144d5d31a36
   Joint=453663   CoordSys=GLOBAL   CoordType=Cartesian   XorR=3   Y=-2.85   Z=-13.4180229476075   SpecialJt=No   GUID=1adb7e4f-0b05-4676-bf01-0b190b0bdd2b
   Joint=453664   CoordSys=GLOBAL   CoordType=Cartesian   XorR=3   Y=-2.85   Z=-39   SpecialJt=No   GUID=2ac72848-1b6e-4f00-8262-b984dea2d520
   Joint=453665   CoordSys=GLOBAL   CoordType=Cartesian   XorR=6   Y=-2.85   Z=-3   SpecialJt=No   GUID=cbf0b42a-b494-4dbb-9f88-5ec0e0d4a8fc
   Joint=453666   CoordSys=GLOBAL   CoordType=Cartesian   XorR=6   Y=-2.85   Z=-13.4180229476075   SpecialJt=No   GUID=a454468a-3aea-44bc-b225-2f8de5f0ec9e
   Joint=453667   CoordSys=GLOBAL   CoordType=Cartesian   XorR=6   Y=-2.85   Z=-39   SpecialJt=No   GUID=52bd3091-5364-4a71-924f-dd03a0676c72
   Joint=453668   CoordSys=GLOBAL   CoordType=Cartesian   XorR=9   Y=-2.85   Z=-3   SpecialJt=No   GUID=8ad44aca-5cdf-479f-a494-c44caf7707b9
   Joint=453669   CoordSys=GLOBAL   CoordType=Cartesian   XorR=9   Y=-2.85   Z=-13.4180229476075   SpecialJt=No   GUID=3699ed4f-1d6d-4c2a-9e08-1945ae175c96
   Joint=453670   CoordSys=GLOBAL   CoordType=Cartesian   XorR=9   Y=-2.85   Z=-39   SpecialJt=No   GUID=1dcaa68f-42f4-4ea0-abf9-f0a0140b17ab
   Joint=453671   CoordSys=GLOBAL   CoordType=Cartesian   XorR=-9   Y=2.85   Z=-13.4180229476075   SpecialJt=No   GUID=cf368d05-9e2c-4446-b5c0-0ecedbc9ef53
   Joint=453672   CoordSys=GLOBAL   CoordType=Cartesian   XorR=-9   Y=2.85   Z=-39   SpecialJt=No   GUID=7beea42d-7d95-4047-9ce4-3566a5cf479b
   Joint=453673   CoordSys=GLOBAL   CoordType=Cartesian   XorR=-6   Y=2.85   Z=-13.4180229476075   SpecialJt=No   GUID=2ba4a2f7-064a-4857-9987-04852837c0b6
   Joint=453674   CoordSys=GLOBAL   CoordType=Cartesian   XorR=-6   Y=2.85   Z=-39   SpecialJt=No   GUID=6f5c774d-c658-4c9f-a3b5-9d2c422c2bee
   Joint=453675   CoordSys=GLOBAL   CoordType=Cartesian   XorR=-3   Y=2.85   Z=-13.4180229476075   SpecialJt=No   GUID=cfd8f276-4257-4b91-813d-99abaf5063fb
   Joint=453676   CoordSys=GLOBAL   CoordType=Cartesian   XorR=-3   Y=2.85   Z=-39   SpecialJt=No   GUID=8fd227a8-d35b-4016-b6fe-fa8e01b6b5bd
   Joint=453677   CoordSys=GLOBAL   CoordType=Cartesian   XorR=0   Y=2.85   Z=-13.4180229476075   SpecialJt=No   GUID=dd525c9b-38c7-4022-9f80-fe28f38cef66
   Joint=453678   CoordSys=GLOBAL   CoordType=Cartesian   XorR=0   Y=2.85   Z=-39   SpecialJt=No   GUID=463450c0-72f6-4100-b323-99a313d96999
   Joint=453679   CoordSys=GLOBAL   CoordType=Cartesian   XorR=3   Y=2.85   Z=-13.4180229476075   SpecialJt=No   GUID=dffe3f71-71bc-4500-ab42-2d4b8df0b6c3
   Joint=453680   CoordSys=GLOBAL   CoordType=Cartesian   XorR=3   Y=2.85   Z=-39   SpecialJt=No   GUID=a4057820-2612-4787-8fad-6f5fabc46097
   Joint=453681   CoordSys=GLOBAL   CoordType=Cartesian   XorR=6   Y=2.85   Z=-13.4180229476075   SpecialJt=No   GUID=e4830d46-9ac9-451f-8ea3-95863af9f007
   Joint=453682   CoordSys=GLOBAL   CoordType=Cartesian   XorR=6   Y=2.85   Z=-39   SpecialJt=No   GUID=f12e59d1-6d4b-4281-8f75-d299d07c2324
   Joint=453683   CoordSys=GLOBAL   CoordType=Cartesian   XorR=9   Y=2.85   Z=-13.4180229476075   SpecialJt=No   GUID=2c644119-aa89-4379-a172-b344f2c2c126
   Joint=453684   CoordSys=GLOBAL   CoordType=Cartesian   XorR=9   Y=2.85   Z=-39   SpecialJt=No   GUID=7866cd5b-fa85-405f-9d47-294a8653805d
   Joint=453685   CoordSys=GLOBAL   CoordType=Cartesian   XorR=-10   Y=-5   Z=0   SpecialJt=No   GUID=8622eda7-5d69-473c-a653-be06cc23a09b
   Joint=453686   CoordSys=GLOBAL   CoordType=Cartesian   XorR=10   Y=-5   Z=0   SpecialJt=No   GUID=c14a8b96-327e-4bac-840a-21d0113f2ea5
   Joint=453687   CoordSys=GLOBAL   CoordType=Cartesian   XorR=-10   Y=5   Z=0   SpecialJt=No   GUID=7a08e7b3-61a6-4dc1-96c8-1ef0b899022e
   Joint=453688   CoordSys=GLOBAL   CoordType=Cartesian   XorR=10   Y=5   Z=0   SpecialJt=No   GUID=4541ccfd-7e2c-4c34-9457-53ee91ea2c20
 
TABLE:  "JOINT PATTERN DEFINITIONS"
   Pattern=Default
 
TABLE:  "JOINT RESTRAINT ASSIGNMENTS"
   Joint=453651   U1=Yes   U2=Yes   U3=No   R1=Yes   R2=Yes   R3=Yes
   Joint=453652   U1=No   U2=No   U3=Yes   R1=No   R2=No   R3=No
   Joint=453654   U1=Yes   U2=Yes   U3=No   R1=Yes   R2=Yes   R3=Yes
   Joint=453655   U1=No   U2=No   U3=Yes   R1=No   R2=No   R3=No
   Joint=453657   U1=Yes   U2=Yes   U3=No   R1=Yes   R2=Yes   R3=Yes
   Joint=453658   U1=No   U2=No   U3=Yes   R1=No   R2=No   R3=No
   Joint=453660   U1=Yes   U2=Yes   U3=No   R1=Yes   R2=Yes   R3=Yes
   Joint=453661   U1=No   U2=No   U3=Yes   R1=No   R2=No   R3=No
   Joint=453663   U1=Yes   U2=Yes   U3=No   R1=Yes   R2=Yes   R3=Yes
   Joint=453664   U1=No   U2=No   U3=Yes   R1=No   R2=No   R3=No
   Joint=453666   U1=Yes   U2=Yes   U3=No   R1=Yes   R2=Yes   R3=Yes
   Joint=453667   U1=No   U2=No   U3=Yes   R1=No   R2=No   R3=No
   Joint=453669   U1=Yes   U2=Yes   U3=No   R1=Yes   R2=Yes   R3=Yes
   Joint=453670   U1=No   U2=No   U3=Yes   R1=No   R2=No   R3=No
   Joint=453671   U1=Yes   U2=Yes   U3=No   R1=Yes   R2=Yes   R3=Yes
   Joint=453672   U1=No   U2=No   U3=Yes   R1=No   R2=No   R3=No
   Joint=453673   U1=Yes   U2=Yes   U3=No   R1=Yes   R2=Yes   R3=Yes
   Joint=453674   U1=No   U2=No   U3=Yes   R1=No   R2=No   R3=No
   Joint=453675   U1=Yes   U2=Yes   U3=No   R1=Yes   R2=Yes   R3=Yes
   Joint=453676   U1=No   U2=No   U3=Yes   R1=No   R2=No   R3=No
   Joint=453677   U1=Yes   U2=Yes   U3=No   R1=Yes   R2=Yes   R3=Yes
   Joint=453678   U1=No   U2=No   U3=Yes   R1=No   R2=No   R3=No
   Joint=453679   U1=Yes   U2=Yes   U3=No   R1=Yes   R2=Yes   R3=Yes
   Joint=453680   U1=No   U2=No   U3=Yes   R1=No   R2=No   R3=No
   Joint=453681   U1=Yes   U2=Yes   U3=No   R1=Yes   R2=Yes   R3=Yes
   Joint=453682   U1=No   U2=No   U3=Yes   R1=No   R2=No   R3=No
   Joint=453683   U1=Yes   U2=Yes   U3=No   R1=Yes   R2=Yes   R3=Yes
   Joint=453684   U1=No   U2=No   U3=Yes   R1=No   R2=No   R3=No
 
TABLE:  "LOAD CASE DEFINITIONS"
   Case=DEAD   Type=LinStatic   InitialCond=Zero   DesTypeOpt="Prog Det"   DesignType=Dead   DesActOpt="Prog Det"   DesignAct=Non-Composite   AutoType=None   RunCase=Yes
   Case=MODAL   Type=LinModal   InitialCond=Zero   DesTypeOpt="Prog Det"   DesignType=Other   DesActOpt="Prog Det"   DesignAct=Other   AutoType=None   RunCase=Yes
   Case=LL   Type=LinStatic   InitialCond=Zero   DesTypeOpt="Prog Det"   DesignType=Live   DesActOpt="Prog Det"   DesignAct="Short-Term Composite"   AutoType=None   RunCase=Yes
 
TABLE:  "LOAD PATTERN DEFINITIONS"
   LoadPat=DEAD   DesignType=Dead   SelfWtMult=1
   LoadPat=LL   DesignType=Live   SelfWtMult=0
 
TABLE:  "MASS SOURCE"
   MassSource=MSSSRC1   Elements=Yes   Masses=Yes   Loads=No   IsDefault=Yes
 
TABLE:  "MATERIAL PROPERTIES 01 - GENERAL"
   Material=A706   Type=Rebar   SymType=Uniaxial   TempDepend=No   Color=Gray8Dark   GUID=30185aab-1311-4f4b-9ffe-ddad707d22d9   Notes="ASTM A706 added 8/23/2025 4:27:57 PM"
   Material=BTCT   Type=Concrete   SymType=Isotropic   TempDepend=No   Color=Blue   Notes="Concrete added 24-Feb-23 16:30:01"
   Material=BTCTCOC   Type=Concrete   SymType=Isotropic   TempDepend=No   Color=Blue   Notes="Concrete added 24-Feb-23 16:30:01"
   Material=Steel   Type=Steel   SymType=Isotropic   TempDepend=No   Color=Magenta   GUID=2f952889-4898-4964-97a4-5fb5c5008d33   Notes="Steel added 8/24/2025 2:51:43 PM"
   Material=Tendon   Type=Tendon   SymType=Uniaxial   TempDepend=No   Color=Yellow   GUID=7dfcd093-823e-4b3a-b96f-35d5bcaf456f   Notes="Tendon added 8/24/2025 2:51:43 PM"
 
TABLE:  "MATERIAL PROPERTIES 02 - BASIC MECHANICAL PROPERTIES"
   Material=A706   UnitWeight=7.84904757236607   UnitMass=0.800380070686609   E1=20389019.1580383   A1=1.16999994421006E-05
   Material=BTCT   UnitWeight=2.40276966501002   UnitMass=0.245014307353044   E1=2900000   G12=1208333.33333333   U12=0.2   A1=9.9E-06
   Material=BTCTCOC   UnitWeight=2.40276966501002   UnitMass=0.245014307353044   E1=3800000000   G12=1583333333.33333   U12=0.2   A1=9.9E-06
   Material=Steel   UnitWeight=7.84904757236607   UnitMass=0.800380070686609   E1=20389019.1580383   G12=7841930.44539935   U12=0.3   A1=1.17E-05
   Material=Tendon   UnitWeight=7.84904757236607   UnitMass=0.800380070686609   E1=20037484.3449687   A1=1.16999994421006E-05
 
TABLE:  "MATERIAL PROPERTIES 03A - STEEL DATA"
   Material=Steel   Fy=35153.4813069626   Fu=45699.5256990514   EffFy=38668.8294376589   EffFu=50269.4782689565   SSCurveOpt=Simple   SSHysType=Kinematic   SHard=0.015   SMax=0.11   SRup=0.17   FinalSlope=-0.1   CoupModType="Von Mises"
 
TABLE:  "MATERIAL PROPERTIES 03B - CONCRETE DATA"
   Material=BTCT   Fc=2812.27850455701   eFc=2812.27850455701   LtWtConc=No   SSCurveOpt=Mander   SSHysType=Takeda   SFc=0.002   SCap=0.005   FinalSlope=-0.1   FAngle=0   DAngle=0   CoupModType="Modified Darwin-Pecknold"
   Material=BTCTCOC   Fc=2812.27850455701   eFc=2812.27850455701   LtWtConc=No   SSCurveOpt=Mander   SSHysType=Takeda   SFc=0.002   SCap=0.005   FinalSlope=-0.1   FAngle=0   DAngle=0   CoupModType="Modified Darwin-Pecknold"
 
TABLE:  "MATERIAL PROPERTIES 03E - REBAR DATA"
   Material=A706   Fy=42184.1775683551   Fu=56245.5700911402   EffFy=46402.5953251907   EffFu=61870.1271002542   SSCurveOpt=Simple   SSHysType=Kinematic   SHard=0.011   SCap=0.11   FinalSlope=-0.1   UseCTDef=No   CoupModType="Von Mises"
 
TABLE:  "MATERIAL PROPERTIES 03F - TENDON DATA"
   Material=Tendon   Fy=172322.365366731   Fu=189828.799057598   SSCurveOpt="270 ksi"   SSHysType=Kinematic   FinalSlope=-0.1   CoupModType="Von Mises"
 
TABLE:  "MATERIAL PROPERTIES 03J - COUPLED NONLINEAR VON MISES DATA"
   Material=A706   YieldStress=46402.5953251907   LinIsoHard=No   LinKinHard=No   NLIsoSaHard=No
   Material=Steel   YieldStress=38668.8294376589   LinIsoHard=No   LinKinHard=No   NLIsoSaHard=No
   Material=Tendon   YieldStress=172322.365366731   LinIsoHard=No   LinKinHard=No   NLIsoSaHard=No
 
TABLE:  "MATERIAL PROPERTIES 06 - DAMPING PARAMETERS"
   Material=A706   ModalRatio=0   VisMass=0   VisStiff=0   HysMass=0   HysStiff=0
   Material=BTCT   ModalRatio=0   VisMass=0   VisStiff=0   HysMass=0   HysStiff=0
   Material=BTCTCOC   ModalRatio=0   VisMass=0   VisStiff=0   HysMass=0   HysStiff=0
   Material=Steel   ModalRatio=0   VisMass=0   VisStiff=0   HysMass=0   HysStiff=0
   Material=Tendon   ModalRatio=0   VisMass=0   VisStiff=0   HysMass=0   HysStiff=0
 
TABLE:  "MATERIAL PROPERTIES 09 - ACCEPTANCE CRITERIA"
   Material=A706   IOTens=0.01   LSTens=0.02   CPTens=0.05   IOComp=-0.005   LSComp=-0.01   CPComp=-0.02
   Material=BTCT   IOTens=0.01   LSTens=0.02   CPTens=0.05   IOComp=-0.003   LSComp=-0.006   CPComp=-0.015   IgnoreTens=Yes
   Material=BTCTCOC   IOTens=0.01   LSTens=0.02   CPTens=0.05   IOComp=-0.003   LSComp=-0.006   CPComp=-0.015   IgnoreTens=Yes
   Material=Steel   IOTens=0.01   LSTens=0.02   CPTens=0.05   IOComp=-0.005   LSComp=-0.01   CPComp=-0.02
   Material=Tendon   IOTens=0.015   LSTens=0.023   CPTens=0.03   IOComp=-0.015   LSComp=-0.023   CPComp=-0.03
 
TABLE:  "OPTIONS - COLORS - DISPLAY"
   DeviceType=Screen   Points=Blue   LinesFrame=Blue   LinesFrmDL=Blue   LinesCable=Green   LinesTendon=Green   SpringLinks=Green   Restraints=Green   Releases=Green   Axes=Cyan   Text=Black   ShadowLines=Gray8Dark   GuideLines=Gray8Dark _
        Highlight=Red   Selection=10504778   AreaFillBot=Red   AreaFillTop=16744703   AreaFillSd=Red   AreaEdge=DarkRed   SolidF1=Red   SolidF2=Blue   SolidF3=Green   SolidF4=Yellow   SolidF5=White   SolidF6=Cyan   SolidEdge=DarkRed _
        Floor=Gray4   Background=White   BGLowLeft=White   BGLowRight=White   BGUpRight=White   Darkness=0.5
   DeviceType=Printer   Points=Gray8Dark   LinesFrame=Black   LinesFrmDL=Gray4   LinesCable=Black   LinesTendon=Black   SpringLinks=Gray8Dark   Restraints=Gray8Dark   Releases=Gray4   Axes=Black   Text=Black   ShadowLines=Gray4 _
        GuideLines=Gray4   Highlight=Black   Selection=Black   AreaFillBot=Gray4   AreaFillTop=Gray8Dark   AreaFillSd=Gray4   AreaEdge=Black   SolidF1=Gray1Light   SolidF2=Gray2   SolidF3=Gray3   SolidF4=Gray4   SolidF5=Gray5 _
        SolidF6=Gray6   SolidEdge=Black   Floor=Gray4   Background=White   BGLowLeft=White   BGLowRight=White   BGUpRight=White   Darkness=0.5
   DeviceType="Color Printer"   Points=Blue   LinesFrame=Blue   LinesFrmDL=Blue   LinesCable=Green   LinesTendon=Green   SpringLinks=Green   Restraints=Green   Releases=Green   Axes=Cyan   Text=Black   ShadowLines=Gray8Dark _
        GuideLines=Gray8Dark   Highlight=Red   Selection=10504778   AreaFillBot=Red   AreaFillTop=16744703   AreaFillSd=Red   AreaEdge=DarkRed   SolidF1=Red   SolidF2=Blue   SolidF3=Green   SolidF4=Yellow   SolidF5=White   SolidF6=Cyan _
        SolidEdge=DarkRed   Floor=Gray4   Background=White   BGLowLeft=White   BGLowRight=White   BGUpRight=White   Darkness=0.5
 
TABLE:  "OPTIONS - COLORS - OUTPUT"
   DeviceType=Screen   Contour1=13107400   Contour2=6553828   Contour3=Red   Contour4=16639   Contour5=Orange   Contour6=43775   Contour7=54527   Contour8=Yellow   Contour9=65408   Contour10=Green   Contour11=8453888   Contour12=Cyan _
        Contour13=16755200   Contour14=16733440   Contour15=Blue   Transpare=0.5   Ratio1=Cyan   Ratio2=Green   Ratio3=Yellow   Ratio4=Orange   Ratio5=Red   RatioNotD=Gray4   RatioNotC=Red   RatioVal1=0.5   RatioVal2=0.7   RatioVal3=0.9 _
        RatioVal4=1   DFillPos=Blue   DFillNeg=Red   DFillRPos=Green   DFillRNeg=Green
   DeviceType=Printer   Contour1=Black   Contour2=3158064   Contour3=4210752   Contour4=5263440   Contour5=6316128   Contour6=7368816   Contour7=Gray8Dark   Contour8=Gray7   Contour9=Gray6   Contour10=Gray5   Contour11=Gray4 _
        Contour12=Gray3   Contour13=Gray2   Contour14=Gray1Light   Contour15=White   Transpare=0   Ratio1=Gray2   Ratio2=Gray4   Ratio3=Gray8Dark   Ratio4=4210752   Ratio5=Black   RatioNotD=Gray4   RatioNotC=Black   RatioVal1=0.5 _
        RatioVal2=0.7   RatioVal3=0.9   RatioVal4=1   DFillPos=Gray8Dark   DFillNeg=Gray8Dark   DFillRPos=4210752   DFillRNeg=4210752
   DeviceType="Color Printer"   Contour1=13107400   Contour2=6553828   Contour3=Red   Contour4=16639   Contour5=Orange   Contour6=43775   Contour7=54527   Contour8=Yellow   Contour9=65408   Contour10=Green   Contour11=8453888 _
        Contour12=Cyan   Contour13=16755200   Contour14=16733440   Contour15=Blue   Transpare=0   Ratio1=Cyan   Ratio2=Green   Ratio3=Yellow   Ratio4=Orange   Ratio5=Red   RatioNotD=Gray4   RatioNotC=Red   RatioVal1=0.5   RatioVal2=0.7 _
        RatioVal3=0.9   RatioVal4=1   DFillPos=Blue   DFillNeg=Red   DFillRPos=Green   DFillRNeg=Green
 
TABLE:  "OVERWRITES - CONCRETE DESIGN - CSA-A233-14"
   Frame=510055   DesignSect="Program Determined"   FrameType="Program Determined"   RLLF=0   XLMajor=0   XLMinor=0   XKMajor=0   XKMinor=0   CmMajor=0   CmMinor=0   DbMajor=0   DbMinor=0   DsMajor=0   DsMinor=0   Rd=0   Ro=0   MaxAggSize=0
   Frame=510056   DesignSect="Program Determined"   FrameType="Program Determined"   RLLF=0   XLMajor=0   XLMinor=0   XKMajor=0   XKMinor=0   CmMajor=0   CmMinor=0   DbMajor=0   DbMinor=0   DsMajor=0   DsMinor=0   Rd=0   Ro=0   MaxAggSize=0
   Frame=510057   DesignSect="Program Determined"   FrameType="Program Determined"   RLLF=0   XLMajor=0   XLMinor=0   XKMajor=0   XKMinor=0   CmMajor=0   CmMinor=0   DbMajor=0   DbMinor=0   DsMajor=0   DsMinor=0   Rd=0   Ro=0   MaxAggSize=0
   Frame=510058   DesignSect="Program Determined"   FrameType="Program Determined"   RLLF=0   XLMajor=0   XLMinor=0   XKMajor=0   XKMinor=0   CmMajor=0   CmMinor=0   DbMajor=0   DbMinor=0   DsMajor=0   DsMinor=0   Rd=0   Ro=0   MaxAggSize=0
   Frame=510059   DesignSect="Program Determined"   FrameType="Program Determined"   RLLF=0   XLMajor=0   XLMinor=0   XKMajor=0   XKMinor=0   CmMajor=0   CmMinor=0   DbMajor=0   DbMinor=0   DsMajor=0   DsMinor=0   Rd=0   Ro=0   MaxAggSize=0
   Frame=510060   DesignSect="Program Determined"   FrameType="Program Determined"   RLLF=0   XLMajor=0   XLMinor=0   XKMajor=0   XKMinor=0   CmMajor=0   CmMinor=0   DbMajor=0   DbMinor=0   DsMajor=0   DsMinor=0   Rd=0   Ro=0   MaxAggSize=0
   Frame=510061   DesignSect="Program Determined"   FrameType="Program Determined"   RLLF=0   XLMajor=0   XLMinor=0   XKMajor=0   XKMinor=0   CmMajor=0   CmMinor=0   DbMajor=0   DbMinor=0   DsMajor=0   DsMinor=0   Rd=0   Ro=0   MaxAggSize=0
   Frame=510062   DesignSect="Program Determined"   FrameType="Program Determined"   RLLF=0   XLMajor=0   XLMinor=0   XKMajor=0   XKMinor=0   CmMajor=0   CmMinor=0   DbMajor=0   DbMinor=0   DsMajor=0   DsMinor=0   Rd=0   Ro=0   MaxAggSize=0
   Frame=510063   DesignSect="Program Determined"   FrameType="Program Determined"   RLLF=0   XLMajor=0   XLMinor=0   XKMajor=0   XKMinor=0   CmMajor=0   CmMinor=0   DbMajor=0   DbMinor=0   DsMajor=0   DsMinor=0   Rd=0   Ro=0   MaxAggSize=0
   Frame=510064   DesignSect="Program Determined"   FrameType="Program Determined"   RLLF=0   XLMajor=0   XLMinor=0   XKMajor=0   XKMinor=0   CmMajor=0   CmMinor=0   DbMajor=0   DbMinor=0   DsMajor=0   DsMinor=0   Rd=0   Ro=0   MaxAggSize=0
   Frame=510065   DesignSect="Program Determined"   FrameType="Program Determined"   RLLF=0   XLMajor=0   XLMinor=0   XKMajor=0   XKMinor=0   CmMajor=0   CmMinor=0   DbMajor=0   DbMinor=0   DsMajor=0   DsMinor=0   Rd=0   Ro=0   MaxAggSize=0
   Frame=510066   DesignSect="Program Determined"   FrameType="Program Determined"   RLLF=0   XLMajor=0   XLMinor=0   XKMajor=0   XKMinor=0   CmMajor=0   CmMinor=0   DbMajor=0   DbMinor=0   DsMajor=0   DsMinor=0   Rd=0   Ro=0   MaxAggSize=0
   Frame=510067   DesignSect="Program Determined"   FrameType="Program Determined"   RLLF=0   XLMajor=0   XLMinor=0   XKMajor=0   XKMinor=0   CmMajor=0   CmMinor=0   DbMajor=0   DbMinor=0   DsMajor=0   DsMinor=0   Rd=0   Ro=0   MaxAggSize=0
   Frame=510068   DesignSect="Program Determined"   FrameType="Program Determined"   RLLF=0   XLMajor=0   XLMinor=0   XKMajor=0   XKMinor=0   CmMajor=0   CmMinor=0   DbMajor=0   DbMinor=0   DsMajor=0   DsMinor=0   Rd=0   Ro=0   MaxAggSize=0
   Frame=510069   DesignSect="Program Determined"   FrameType="Program Determined"   RLLF=0   XLMajor=0   XLMinor=0   XKMajor=0   XKMinor=0   CmMajor=0   CmMinor=0   DbMajor=0   DbMinor=0   DsMajor=0   DsMinor=0   Rd=0   Ro=0   MaxAggSize=0
   Frame=510070   DesignSect="Program Determined"   FrameType="Program Determined"   RLLF=0   XLMajor=0   XLMinor=0   XKMajor=0   XKMinor=0   CmMajor=0   CmMinor=0   DbMajor=0   DbMinor=0   DsMajor=0   DsMinor=0   Rd=0   Ro=0   MaxAggSize=0
   Frame=510071   DesignSect="Program Determined"   FrameType="Program Determined"   RLLF=0   XLMajor=0   XLMinor=0   XKMajor=0   XKMinor=0   CmMajor=0   CmMinor=0   DbMajor=0   DbMinor=0   DsMajor=0   DsMinor=0   Rd=0   Ro=0   MaxAggSize=0
   Frame=510072   DesignSect="Program Determined"   FrameType="Program Determined"   RLLF=0   XLMajor=0   XLMinor=0   XKMajor=0   XKMinor=0   CmMajor=0   CmMinor=0   DbMajor=0   DbMinor=0   DsMajor=0   DsMinor=0   Rd=0   Ro=0   MaxAggSize=0
   Frame=510073   DesignSect="Program Determined"   FrameType="Program Determined"   RLLF=0   XLMajor=0   XLMinor=0   XKMajor=0   XKMinor=0   CmMajor=0   CmMinor=0   DbMajor=0   DbMinor=0   DsMajor=0   DsMinor=0   Rd=0   Ro=0   MaxAggSize=0
   Frame=510074   DesignSect="Program Determined"   FrameType="Program Determined"   RLLF=0   XLMajor=0   XLMinor=0   XKMajor=0   XKMinor=0   CmMajor=0   CmMinor=0   DbMajor=0   DbMinor=0   DsMajor=0   DsMinor=0   Rd=0   Ro=0   MaxAggSize=0
# ... 30 like lines cut
 
TABLE:  "PREFERENCES - ALUMINUM DESIGN - AA 2015"
   THDesign=Envelopes   SRatioLimit=1   Provision=ASD   LatFact=1.33333333333333   UseLatFact=No   Bridge=No   OmegaTy=1.65   OmegaTr=1.95   OmegaC=1.65   OmegaBo=1.65   OmegaBr=1.95   OmegaVo=1.65   OmegaVr=1.95
 
TABLE:  "PREFERENCES - COLD FORMED DESIGN - AISI-ASD96"
   THDesign=Envelopes   FrameType="Braced Frame"   SRatioLimit=1   MaxIter=1   OmegaBS=1.67   OmegaBUS=1.67   OmegaBLTB=1.67   OmegaVS=1.67   OmegaVNS=1.5   OmegaT=1.67   OmegaC=1.8
 
TABLE:  "PREFERENCES - CONCRETE DESIGN - CSA-A233-14"
   THDesign=Envelopes   NumCurves=24   NumPoints=11   MinEccen=Yes   BCCDesign=Yes   CTorsion=Yes   PatLLF=0.75   UFLimit=0.95   PhiS=0.85   PhiC=0.65
 
TABLE:  "PREFERENCES - CONCRETE SHELL DESIGN - EUROCODE 2-2004"
   Country="CEN Default"   GammaS=1.15   GammaC=1.5   AlphaCC=1
 
TABLE:  "PREFERENCES - DIMENSIONAL"
   MergeTol=0.001   FineGrid=0.25   Nudge=0.25   SelectTol=3   SnapTol=12   SLineThick=1   PLineThick=4   MaxFont=8   MinFont=3   AutoZoom=10   ShrinkFact=70   TextFileLen=240
 
TABLE:  "PREFERENCES - STEEL DESIGN - AISC 360-10"
   THDesign=Envelopes   FrameType=SMF   PatLLF=0.75   SRatioLimit=0.95   MaxIter=1   SDC=D   SeisCode=No   SeisLoad=No   ImpFactor=1   SystemRho=1   SystemSds=0.5   SystemR=8   SystemCd=5.5   Omega0=3   Provision=LRFD _
        AMethod="Direct Analysis"   SOMethod="General 2nd Order"   SRMethod="Tau-b Fixed"   NLCoeff=0.002   PhiB=0.9   PhiC=0.9   PhiTY=0.9   PhiTF=0.75   PhiV=0.9   PhiVRolledI=1   PhiVT=0.9   PlugWeld=Yes   HSSWelding=ERW   HSSReduceT=No _
        CheckDefl=No   DLRat=120   SDLAndLLRat=120   LLRat=360   TotalRat=240   NetRat=240
 
TABLE:  "PROGRAM CONTROL"
   ProgramName=SAP2000   Version=24.0.0   CurrUnits="Tonf, m, C"   SteelCode="AISC 360-10"   ConcCode="CSA A23.3-14"   AlumCode="AA 2015"   ColdCode=AISI-ASD96   RegenHinge=Yes
 
TABLE:  "PROJECT INFORMATION"
   Item="Company Name"   Data=po
   Item="Client Name"
   Item="Project Name"
   Item="Project Number"
   Item="Model Name"
   Item="Model Description"
   Item="Revision Number"
   Item="Frame Type"
   Item=Engineer
   Item=Checker
   Item=Supervisor
   Item="Issue Code"
   Item="Design Code"
 
TABLE:  "REBAR SIZES"
   RebarID=#2   Area=3.2258E-05   Diameter=0.00635
   RebarID=#3   Area=7.09675996154547E-05   Diameter=0.009525
   RebarID=#4   Area=0.000129032001922727   Diameter=0.0127
   RebarID=#5   Area=0.000199999601538181   Diameter=0.015875
   RebarID=#6   Area=0.000283870398461819   Diameter=0.01905
   RebarID=#7   Area=0.000387096015381813   Diameter=0.022225
   RebarID=#8   Area=0.000509676413843632   Diameter=0.0254
   RebarID=#9   Area=0.00064516   Diameter=0.0286512005329132
   RebarID=#10   Area=0.00081935318769455   Diameter=0.0322579995155334
   RebarID=#11   Area=0.00100644956308365   Diameter=0.0358139991521835
   RebarID=#14   Area=0.00145161   Diameter=0.0430021989583969
   RebarID=#18   Area=0.00258064   Diameter=0.0573277992248535
   RebarID=10M   Area=0.000100000004162606   Diameter=0.0113000003604438
   RebarID=15M   Area=0.000200000008325212   Diameter=0.0160000002402959
   RebarID=20M   Area=0.000300000012487818   Diameter=0.0195000002928606
   RebarID=25M   Area=0.000500000020813031   Diameter=0.0252000011414055
   RebarID=30M   Area=0.000700000029138243   Diameter=0.0299000000675832
   RebarID=35M   Area=0.00100000004162606   Diameter=0.0357000012990997
   RebarID=45M   Area=0.00150000006243909   Diameter=0.0437000014192476
   RebarID=55M   Area=0.00250000010406515   Diameter=0.056400002372922
   RebarID=6d   Area=2.83000004150781E-05   Diameter=0.00600000009011096
   RebarID=8d   Area=5.03000013308514E-05   Diameter=0.00800000012014795
   RebarID=10d   Area=7.85000032676458E-05   Diameter=0.0100000001501849
   RebarID=12d   Area=0.000113000004703745   Diameter=0.0120000001802219
   RebarID=14d   Area=0.000154000006410413   Diameter=0.0140000002102589
   RebarID=16d   Area=0.000201000008366838   Diameter=0.0160000002402959
   RebarID=20d   Area=0.000314000013070583   Diameter=0.0200000003003699
   RebarID=25d   Area=0.000491000020438396   Diameter=0.0250000003754623
   RebarID=26d   Area=0.000531000022103439   Diameter=0.0260000003904808
   RebarID=28d   Area=0.000616000025641654   Diameter=0.0280000004205178
   RebarID=N12   Area=0.000113000004703745   Diameter=0.0120000001802219
   RebarID=N16   Area=0.000201000008366838   Diameter=0.0160000002402959
   RebarID=N20   Area=0.000314000013070583   Diameter=0.0200000003003699
   RebarID=N24   Area=0.00045200001881498   Diameter=0.0240000003604438
   RebarID=N28   Area=0.000616000025641654   Diameter=0.0280000004205178
   RebarID=N32   Area=0.000804000033467353   Diameter=0.0320000004805918
   RebarID=N36   Area=0.00102000004245858   Diameter=0.0360000005406658
 
TABLE:  "SOLID PROPERTY DEFINITIONS"
   SolidProp=Solid1   Material=BTCT   MatAngleA=0   MatAngleB=0   MatAngleC=0   InComp=Yes   Color=Gray8Dark
 
END TABLE DATA
