File D:\ResearchLab\02_Projects\02_Projects\Tap chi XD_SFOA\code\SOO_MPJ\MPJ_Sap\SOO_Cost_W11\MPJ_11.$2k was saved on m/d/yy at h:mm:ss
 
TABLE:  "ACTIVE DEGREES OF FREEDOM"
   UX=Yes   UY=Yes   UZ=Yes   RX=Yes   RY=Yes   RZ=Yes
 
TABLE:  "ANALYSIS OPTIONS"
   Solver=Advanced   SolverProc=Auto   Force32Bit=No   StiffCase=None   GeomMod=None   HingeOpt="In Elements"   NumAThreads=0   MaxFileSize=0   NumDThreads=0   NumRThreads=0   UseMMFiles="Program Determined"   AllowDiff=No
 
TABLE:  "AREA AUTO MESH ASSIGNMENTS"
   Area=17984   MeshType="Number of Elements"   MeshGroup=ALL   Number1=3   Number2=3   LocalEdge=No   LocalFace=No   SuppEdge=No   SuppFace=No   SubMesh=No
   Area=17985   MeshType="Number of Elements"   MeshGroup=ALL   Number1=3   Number2=3   LocalEdge=No   LocalFace=No   SuppEdge=No   SuppFace=No   SubMesh=No
   Area=17986   MeshType="Number of Elements"   MeshGroup=ALL   Number1=3   Number2=3   LocalEdge=No   LocalFace=No   SuppEdge=No   SuppFace=No   SubMesh=No
   Area=17987   MeshType="Number of Elements"   MeshGroup=ALL   Number1=3   Number2=3   LocalEdge=No   LocalFace=No   SuppEdge=No   SuppFace=No   SubMesh=No
   Area=17988   MeshType="Number of Elements"   MeshGroup=ALL   Number1=3   Number2=3   LocalEdge=No   LocalFace=No   SuppEdge=No   SuppFace=No   SubMesh=No
   Area=17989   MeshType="Number of Elements"   MeshGroup=ALL   Number1=3   Number2=3   LocalEdge=No   LocalFace=No   SuppEdge=No   SuppFace=No   SubMesh=No
   Area=17990   MeshType="Number of Elements"   MeshGroup=ALL   Number1=3   Number2=3   LocalEdge=No   LocalFace=No   SuppEdge=No   SuppFace=No   SubMesh=No
   Area=17991   MeshType="Number of Elements"   MeshGroup=ALL   Number1=3   Number2=3   LocalEdge=No   LocalFace=No   SuppEdge=No   SuppFace=No   SubMesh=No
   Area=17992   MeshType="Number of Elements"   MeshGroup=ALL   Number1=3   Number2=3   LocalEdge=No   LocalFace=No   SuppEdge=No   SuppFace=No   SubMesh=No
   Area=17993   MeshType="Number of Elements"   MeshGroup=ALL   Number1=3   Number2=3   LocalEdge=No   LocalFace=No   SuppEdge=No   SuppFace=No   SubMesh=No
   Area=17994   MeshType="Number of Elements"   MeshGroup=ALL   Number1=3   Number2=3   LocalEdge=No   LocalFace=No   SuppEdge=No   SuppFace=No   SubMesh=No
   Area=17995   MeshType="Number of Elements"   MeshGroup=ALL   Number1=3   Number2=3   LocalEdge=No   LocalFace=No   SuppEdge=No   SuppFace=No   SubMesh=No
   Area=17996   MeshType="Number of Elements"   MeshGroup=ALL   Number1=3   Number2=3   LocalEdge=No   LocalFace=No   SuppEdge=No   SuppFace=No   SubMesh=No
   Area=17997   MeshType="Number of Elements"   MeshGroup=ALL   Number1=3   Number2=3   LocalEdge=No   LocalFace=No   SuppEdge=No   SuppFace=No   SubMesh=No
   Area=17998   MeshType="Number of Elements"   MeshGroup=ALL   Number1=3   Number2=3   LocalEdge=No   LocalFace=No   SuppEdge=No   SuppFace=No   SubMesh=No
   Area=17999   MeshType="Number of Elements"   MeshGroup=ALL   Number1=3   Number2=3   LocalEdge=No   LocalFace=No   SuppEdge=No   SuppFace=No   SubMesh=No
   Area=18000   MeshType="Number of Elements"   MeshGroup=ALL   Number1=3   Number2=3   LocalEdge=No   LocalFace=No   SuppEdge=No   SuppFace=No   SubMesh=No
   Area=18001   MeshType="Number of Elements"   MeshGroup=ALL   Number1=3   Number2=3   LocalEdge=No   LocalFace=No   SuppEdge=No   SuppFace=No   SubMesh=No
   Area=18002   MeshType="Number of Elements"   MeshGroup=ALL   Number1=3   Number2=3   LocalEdge=No   LocalFace=No   SuppEdge=No   SuppFace=No   SubMesh=No
   Area=18003   MeshType="Number of Elements"   MeshGroup=ALL   Number1=3   Number2=3   LocalEdge=No   LocalFace=No   SuppEdge=No   SuppFace=No   SubMesh=No
 
TABLE:  "AREA LOADS - UNIFORM"
   Area=17984   LoadPat=LL   CoordSys=GLOBAL   Dir=Gravity   UnifLoad=1.00034158457019
   Area=17985   LoadPat=LL   CoordSys=GLOBAL   Dir=Gravity   UnifLoad=1.00034158457019
   Area=17986   LoadPat=LL   CoordSys=GLOBAL   Dir=Gravity   UnifLoad=1.00034158457019
   Area=17987   LoadPat=LL   CoordSys=GLOBAL   Dir=Gravity   UnifLoad=1.00034158457019
   Area=17988   LoadPat=LL   CoordSys=GLOBAL   Dir=Gravity   UnifLoad=1.00034158457019
   Area=17989   LoadPat=LL   CoordSys=GLOBAL   Dir=Gravity   UnifLoad=1.00034158457019
   Area=17990   LoadPat=LL   CoordSys=GLOBAL   Dir=Gravity   UnifLoad=1.00034158457019
   Area=17991   LoadPat=LL   CoordSys=GLOBAL   Dir=Gravity   UnifLoad=1.00034158457019
   Area=17992   LoadPat=LL   CoordSys=GLOBAL   Dir=Gravity   UnifLoad=1.00034158457019
   Area=17993   LoadPat=LL   CoordSys=GLOBAL   Dir=Gravity   UnifLoad=1.00034158457019
   Area=17994   LoadPat=LL   CoordSys=GLOBAL   Dir=Gravity   UnifLoad=1.00034158457019
   Area=17995   LoadPat=LL   CoordSys=GLOBAL   Dir=Gravity   UnifLoad=1.00034158457019
   Area=17996   LoadPat=LL   CoordSys=GLOBAL   Dir=Gravity   UnifLoad=1.00034158457019
   Area=17997   LoadPat=LL   CoordSys=GLOBAL   Dir=Gravity   UnifLoad=1.00034158457019
   Area=17998   LoadPat=LL   CoordSys=GLOBAL   Dir=Gravity   UnifLoad=1.00034158457019
   Area=17999   LoadPat=LL   CoordSys=GLOBAL   Dir=Gravity   UnifLoad=1.00034158457019
   Area=18000   LoadPat=LL   CoordSys=GLOBAL   Dir=Gravity   UnifLoad=1.00034158457019
   Area=18001   LoadPat=LL   CoordSys=GLOBAL   Dir=Gravity   UnifLoad=1.00034158457019
   Area=18002   LoadPat=LL   CoordSys=GLOBAL   Dir=Gravity   UnifLoad=1.00034158457019
   Area=18003   LoadPat=LL   CoordSys=GLOBAL   Dir=Gravity   UnifLoad=1.00034158457019
 
TABLE:  "AREA SECTION ASSIGNMENTS"
   Area=17984   Section=Deck   MatProp=Default
   Area=17985   Section=Deck   MatProp=Default
   Area=17986   Section=Deck   MatProp=Default
   Area=17987   Section=Deck   MatProp=Default
   Area=17988   Section=Deck   MatProp=Default
   Area=17989   Section=Deck   MatProp=Default
   Area=17990   Section=Deck   MatProp=Default
   Area=17991   Section=Deck   MatProp=Default
   Area=17992   Section=Deck   MatProp=Default
   Area=17993   Section=Deck   MatProp=Default
   Area=17994   Section=Deck   MatProp=Default
   Area=17995   Section=Deck   MatProp=Default
   Area=17996   Section=Deck   MatProp=Default
   Area=17997   Section=Deck   MatProp=Default
   Area=17998   Section=Deck   MatProp=Default
   Area=17999   Section=Deck   MatProp=Default
   Area=18000   Section=Deck   MatProp=Default
   Area=18001   Section=Deck   MatProp=Default
   Area=18002   Section=Deck   MatProp=Default
   Area=18003   Section=Deck   MatProp=Default
 
TABLE:  "AREA SECTION PROPERTIES"
   Section=Deck   Material=BTCT   MatAngle=0   AreaType=Shell   Type=Shell-Thin   DrillDOF=Yes   Thickness=0.3   BendThick=0.3   Color=Green   F11Mod=1   F22Mod=1   F12Mod=1   M11Mod=1   M22Mod=1   M12Mod=1   V13Mod=1   V23Mod=1   MMod=1 _
        WMod=1   Notes="Added 24-Feb-23 16:56:47"
 
TABLE:  "AREA SECTION PROPERTY DESIGN PARAMETERS"
   Section=Deck   RebarMat=None   RebarOpt=Default
 
TABLE:  "AREA SECTION PROPERTY - TIME DEPENDENT"
   Section=Deck   TypeSize=User   AutoSFSize=1   UserValSize=0.1
 
TABLE:  "AUTO COMBINATION OPTION DATA 01 - GENERAL"
   DesignType=Concrete   AutoGen=Yes
 
TABLE:  "AUTO COMBINATION OPTION DATA 02 - USER DATA"
   DesignType=Concrete   LSType=Strength   LCName=DEAD
   DesignType=Concrete   LSType=Strength   LCName=LL
 
TABLE:  "AUTO WAVE 3 - WAVE CHARACTERISTICS - GENERAL"
   WaveChar=Default   WaveType="From Theory"   KinFactor=1   SWaterDepth=45   WaveHeight=18   WavePeriod=12   WaveTheory=Linear
 
TABLE:  "CASE - MODAL 1 - GENERAL"
   Case=MODAL   ModeType=Eigen   MaxNumModes=12   MinNumModes=1   EigenShift=0   EigenCutoff=0   EigenTol=1E-09   AutoShift=Yes
 
TABLE:  "CASE - STATIC 1 - LOAD ASSIGNMENTS"
   Case=DEAD   LoadType="Load pattern"   LoadName=DEAD   LoadSF=1
   Case=LL   LoadType="Load pattern"   LoadName=LL   LoadSF=1
 
TABLE:  "COMBINATION DEFINITIONS"
   ComboName=COMB1   ComboType="Linear Add"   AutoDesign=No   CaseName=DEAD   ScaleFactor=1   SteelDesign=None   ConcDesign=Strength   AlumDesign=None   ColdDesign=None
   ComboName=COMB2   ComboType="Linear Add"   AutoDesign=No   CaseName=DEAD   ScaleFactor=1   SteelDesign=None   ConcDesign=Strength   AlumDesign=None   ColdDesign=None
   ComboName=COMB2   CaseName=LL   ScaleFactor=1
   ComboName=BAO   ComboType=Envelope   AutoDesign=No   CaseName=COMB1   ScaleFactor=1   SteelDesign=None   ConcDesign=Strength   AlumDesign=None   ColdDesign=None
   ComboName=BAO   CaseName=COMB2   ScaleFactor=1
   ComboName=DCON1   ComboType="Linear Add"   AutoDesign=Yes   CaseName=DEAD   ScaleFactor=1.4   SteelDesign=None   ConcDesign=Strength   AlumDesign=None   ColdDesign=None   GUID=bb4fff9a-98b5-44d1-9fde-34d92700a8e9   Notes="Dead Only; Strength"
   ComboName=DCON2   ComboType="Linear Add"   AutoDesign=Yes   CaseName=DEAD   ScaleFactor=1.25   SteelDesign=None   ConcDesign=Strength   AlumDesign=None   ColdDesign=None   GUID=505bcda7-6fac-4dd0-b03e-c591d1ffc6ce   Notes="Dead + Live; Strength"
   ComboName=DCON2   CaseName=LL   ScaleFactor=1.5
 
TABLE:  "CONNECTIVITY - AREA"
   Area=17984   Joint1=52706   Joint2=52672   Joint3=52653   Joint4=52652   GUID=c69a72ea-404c-4453-ba31-4cfecee7bc0f
   Area=17985   Joint1=52652   Joint2=52653   Joint3=52655   Joint4=52654   GUID=589535cd-41cb-4b15-aa5e-68f2f569f84a
   Area=17986   Joint1=52654   Joint2=52655   Joint3=52657   Joint4=52656   GUID=5769afd4-299d-4570-8e22-edbf3cd03221
   Area=17987   Joint1=52656   Joint2=52657   Joint3=52659   Joint4=52658   GUID=90dd8f2f-fde8-4e58-9585-4171a67ef1d8
   Area=17988   Joint1=52658   Joint2=52659   Joint3=52675   Joint4=52707   GUID=5c5435f6-2d40-421c-9e17-8c7a4565598c
   Area=17989   Joint1=52672   Joint2=52673   Joint3=52660   Joint4=52653   GUID=c6b3694f-700f-4f19-9233-339909f03233
   Area=17990   Joint1=52653   Joint2=52660   Joint3=52661   Joint4=52655   GUID=60f3c28c-9218-428c-808a-490a64fea3bb
   Area=17991   Joint1=52655   Joint2=52661   Joint3=52662   Joint4=52657   GUID=3864ce3c-f719-465e-9316-bd1e628026a2
   Area=17992   Joint1=52657   Joint2=52662   Joint3=52663   Joint4=52659   GUID=99e18398-8217-4d99-8add-d080278301cb
   Area=17993   Joint1=52659   Joint2=52663   Joint3=52676   Joint4=52675   GUID=fc442582-68ac-4d36-a619-50123299cbbe
   Area=17994   Joint1=52673   Joint2=52674   Joint3=52664   Joint4=52660   GUID=c228194b-a259-4185-9f6c-f63e432ac206
   Area=17995   Joint1=52660   Joint2=52664   Joint3=52665   Joint4=52661   GUID=3bb6c60f-61e6-4528-8f1c-6ae9839cfce5
   Area=17996   Joint1=52661   Joint2=52665   Joint3=52666   Joint4=52662   GUID=13dd619c-014a-46be-8762-3382c6ce55cf
   Area=17997   Joint1=52662   Joint2=52666   Joint3=52667   Joint4=52663   GUID=d3d408a7-ec1a-4ae4-a87d-01dbdf8a11f2
   Area=17998   Joint1=52663   Joint2=52667   Joint3=52677   Joint4=52676   GUID=d333ce18-fcab-4bf4-84ff-793f4a9736a4
   Area=17999   Joint1=52674   Joint2=52708   Joint3=52668   Joint4=52664   GUID=608e015e-4975-4754-9964-653149881000
   Area=18000   Joint1=52664   Joint2=52668   Joint3=52669   Joint4=52665   GUID=77477dde-50cd-49e2-b6ab-0f4b132de83b
   Area=18001   Joint1=52665   Joint2=52669   Joint3=52670   Joint4=52666   GUID=3a92db0f-0cfd-4e99-94c9-37bdfdd71185
   Area=18002   Joint1=52666   Joint2=52670   Joint3=52671   Joint4=52667   GUID=f651551f-1bdf-465b-8792-9c7aaa86e1a6
   Area=18003   Joint1=52667   Joint2=52671   Joint3=52709   Joint4=52677   GUID=2afbd6d3-01f6-4b56-a062-8f347667d044
 
TABLE:  "CONNECTIVITY - FRAME"
   Frame=56842   JointI=52652   JointJ=52653   IsCurved=No   GUID=8306c5bb-8445-4e57-b886-07d301caf9db
   Frame=56843   JointI=52654   JointJ=52655   IsCurved=No   GUID=eebf4ebd-bc19-4ed9-ba92-07d210c35c62
   Frame=56844   JointI=52656   JointJ=52657   IsCurved=No   GUID=b63b2816-516d-48cf-8ec2-197215531b43
   Frame=56845   JointI=52658   JointJ=52659   IsCurved=No   GUID=96de0adf-d672-46f8-ac70-6db9d70b13da
   Frame=56846   JointI=52653   JointJ=52660   IsCurved=No   GUID=41d4f340-4a1f-4cc9-88b0-d7ec1eff757c
   Frame=56847   JointI=52655   JointJ=52661   IsCurved=No   GUID=3ca0bb45-5b25-46be-a908-9e3d66b513fc
   Frame=56848   JointI=52657   JointJ=52662   IsCurved=No   GUID=66e73bd5-5586-4077-ac56-0d288931e4d4
   Frame=56849   JointI=52659   JointJ=52663   IsCurved=No   GUID=c1d4af87-7fd8-4da9-980e-c7f870bfb7b0
   Frame=56850   JointI=52660   JointJ=52664   IsCurved=No   GUID=e75bf50b-d3d4-4252-8515-cce8a5193399
   Frame=56851   JointI=52661   JointJ=52665   IsCurved=No   GUID=1706f47b-7559-4463-a367-121233e17cb9
   Frame=56852   JointI=52662   JointJ=52666   IsCurved=No   GUID=49ee3d26-a68f-4cf8-820a-6adc89770dbb
   Frame=56853   JointI=52663   JointJ=52667   IsCurved=No   GUID=9e463bc1-7948-42d1-b7f0-2387bae2aeb4
   Frame=56854   JointI=52664   JointJ=52668   IsCurved=No   GUID=b5967b41-7a1b-441b-b32f-aa0ddd9a0f15
   Frame=56855   JointI=52665   JointJ=52669   IsCurved=No   GUID=0fa08c5b-6832-42e5-a5f7-3f2654445f17
   Frame=56856   JointI=52666   JointJ=52670   IsCurved=No   GUID=3098fc4a-d992-4023-b4f2-405c33431346
   Frame=56857   JointI=52667   JointJ=52671   IsCurved=No   GUID=7e580557-afdf-4d17-899d-47b42af61dbe
   Frame=56858   JointI=52672   JointJ=52653   IsCurved=No   GUID=812103b8-cead-4da1-9e2c-5d569400f7e9
   Frame=56859   JointI=52673   JointJ=52660   IsCurved=No   GUID=3d5433c7-f86b-4b3c-8e27-89166fac5eec
   Frame=56860   JointI=52674   JointJ=52664   IsCurved=No   GUID=53ba263a-887c-4d5a-af90-86bc035ad5f3
   Frame=56861   JointI=52653   JointJ=52655   IsCurved=No   GUID=15b91cd1-273e-42d6-8970-a05922eab1c3
   Frame=56862   JointI=52660   JointJ=52661   IsCurved=No   GUID=0c9a7185-07e6-4d6c-9ba7-e2d4529d8135
   Frame=56863   JointI=52664   JointJ=52665   IsCurved=No   GUID=aecb93bb-5809-43a3-9732-16472c3cc4c1
   Frame=56864   JointI=52655   JointJ=52657   IsCurved=No   GUID=5cf966ec-fec0-46ea-9c48-7f50c63da828
   Frame=56865   JointI=52661   JointJ=52662   IsCurved=No   GUID=77881f78-8f39-41ba-a25d-15becc112819
   Frame=56866   JointI=52665   JointJ=52666   IsCurved=No   GUID=a584fa23-9ccc-47a5-a12c-ec0f96508e4b
   Frame=56867   JointI=52657   JointJ=52659   IsCurved=No   GUID=12211c42-ad0c-4827-9731-4c795e283de2
   Frame=56868   JointI=52662   JointJ=52663   IsCurved=No   GUID=f6e1ea34-04a9-4275-b8a4-2d2a83e2f985
   Frame=56869   JointI=52666   JointJ=52667   IsCurved=No   GUID=a4797d4e-0838-4734-bcec-8c49c49cdeb5
   Frame=56870   JointI=52659   JointJ=52675   IsCurved=No   GUID=11fa9f5f-99a6-469f-8d28-a88aff8d7f9f
   Frame=56871   JointI=52663   JointJ=52676   IsCurved=No   GUID=93d34e34-8c8f-4dec-832c-648df1bd2373
   Frame=56872   JointI=52667   JointJ=52677   IsCurved=No   GUID=5f7152f8-4e7a-475f-a630-aa0ed2e1a445
   Frame=56873   JointI=52653   JointJ=52678   IsCurved=No   GUID=94cda2a6-c34f-44a1-84cd-0763254643bf
   Frame=56874   JointI=52678   JointJ=52679   IsCurved=No   GUID=7ac54d4c-9efb-452a-ada5-bd6f732a8100
   Frame=56875   JointI=52679   JointJ=52680   IsCurved=No   GUID=b8ceca4d-10a3-4d54-9893-d3b13867b160
   Frame=56876   JointI=52655   JointJ=52681   IsCurved=No   GUID=fa217753-8526-4f0d-925d-ba7c83498930
   Frame=56877   JointI=52681   JointJ=52682   IsCurved=No   GUID=12c6df86-bfeb-4940-8768-db01660a3cfd
   Frame=56878   JointI=52682   JointJ=52683   IsCurved=No   GUID=07255b95-3143-48c7-963f-004f2f9676a3
   Frame=56879   JointI=52657   JointJ=52684   IsCurved=No   GUID=a6253e03-b6ca-4b4a-bc15-3ab43221de0d
   Frame=56880   JointI=52684   JointJ=52685   IsCurved=No   GUID=0351af61-6ed7-4078-8885-d9fa4cc45741
   Frame=56881   JointI=52685   JointJ=52686   IsCurved=No   GUID=97b62b59-1536-48b6-b8d1-93a7467dcb65
   Frame=56882   JointI=52659   JointJ=52687   IsCurved=No   GUID=63741012-56ce-4dbf-8231-b5c49b8f269e
   Frame=56883   JointI=52687   JointJ=52688   IsCurved=No   GUID=7318288a-6283-4ca7-a5d2-ad6acbf82582
   Frame=56884   JointI=52688   JointJ=52689   IsCurved=No   GUID=90a23e00-9b3e-4ae6-8e23-1beb0b13d4a2
   Frame=56885   JointI=52660   JointJ=52690   IsCurved=No   GUID=0af10036-4fcb-406e-bf95-99084737e2f2
   Frame=56886   JointI=52690   JointJ=52691   IsCurved=No   GUID=1c2756f2-9dbc-4419-9f92-8dd44b08550f
   Frame=56887   JointI=52661   JointJ=52692   IsCurved=No   GUID=00b98236-eff2-4d97-8838-2615c6d24759
   Frame=56888   JointI=52692   JointJ=52693   IsCurved=No   GUID=08488c86-5466-48e0-ab92-987e50014ad6
   Frame=56889   JointI=52662   JointJ=52694   IsCurved=No   GUID=7c3aa6c7-dcd6-405c-8aeb-b6e744f9184a
   Frame=56890   JointI=52694   JointJ=52695   IsCurved=No   GUID=6eb84b3c-0782-4bd0-bb4c-563425a035b5
   Frame=56891   JointI=52663   JointJ=52696   IsCurved=No   GUID=368fd1a4-fdb0-4822-9d7d-1b6eb4612513
   Frame=56892   JointI=52696   JointJ=52697   IsCurved=No   GUID=33a77a37-5df7-42ba-98f6-85447bc0db68
   Frame=56893   JointI=52664   JointJ=52698   IsCurved=No   GUID=37d9c01a-fd93-43cc-aa45-c58fd8b5ab9d
   Frame=56894   JointI=52698   JointJ=52699   IsCurved=No   GUID=34a7ef68-2014-490b-adb2-1de171ac4b16
   Frame=56895   JointI=52665   JointJ=52700   IsCurved=No   GUID=c4c59911-90db-4f02-b783-c8b0f63b2cc6
   Frame=56896   JointI=52700   JointJ=52701   IsCurved=No   GUID=af8a97c2-80ec-4aff-aba6-ecb40d6177e0
   Frame=56897   JointI=52666   JointJ=52702   IsCurved=No   GUID=a0503f06-504b-4be6-bf61-bb99d5b9d9f0
   Frame=56898   JointI=52702   JointJ=52703   IsCurved=No   GUID=901744cd-cd4e-4123-a8bf-385876a1a7d9
   Frame=56899   JointI=52667   JointJ=52704   IsCurved=No   GUID=ec49c818-12a2-4944-bbb7-95b4517cb58f
   Frame=56900   JointI=52704   JointJ=52705   IsCurved=No   GUID=a0faa6e4-8b40-4923-b5a9-12d0fc1f4c60
   Frame=56901   JointI=52678   JointJ=52681   IsCurved=No   GUID=bd9b09bc-0bf2-430b-8748-504e7b035f0d
   Frame=56902   JointI=52681   JointJ=52684   IsCurved=No   GUID=36392896-2a03-4d76-8884-c6f62fa45c6d
   Frame=56903   JointI=52684   JointJ=52687   IsCurved=No   GUID=a2c89f10-a265-4528-bb6e-b2ad53f74bd4
 
TABLE:  "COORDINATE SYSTEMS"
   Name=GLOBAL   Type=Cartesian   X=0   Y=0   Z=0   AboutZ=0   AboutY=0   AboutX=0
 
TABLE:  "DATABASE DOCUMENTATION"
 
TABLE:  "DATABASE FORMAT TYPES"
   UnitsCurr=Yes   OverrideE=No
 
TABLE:  "FRAME AUTO MESH ASSIGNMENTS"
   Frame=56842   AutoMesh=Yes   AtJoints=Yes   AtFrames=No   NumSegments=0   MaxLength=0   MaxDegrees=0
   Frame=56843   AutoMesh=Yes   AtJoints=Yes   AtFrames=No   NumSegments=0   MaxLength=0   MaxDegrees=0
   Frame=56844   AutoMesh=Yes   AtJoints=Yes   AtFrames=No   NumSegments=0   MaxLength=0   MaxDegrees=0
   Frame=56845   AutoMesh=Yes   AtJoints=Yes   AtFrames=No   NumSegments=0   MaxLength=0   MaxDegrees=0
   Frame=56846   AutoMesh=Yes   AtJoints=Yes   AtFrames=No   NumSegments=0   MaxLength=0   MaxDegrees=0
   Frame=56847   AutoMesh=Yes   AtJoints=Yes   AtFrames=No   NumSegments=0   MaxLength=0   MaxDegrees=0
   Frame=56848   AutoMesh=Yes   AtJoints=Yes   AtFrames=No   NumSegments=0   MaxLength=0   MaxDegrees=0
   Frame=56849   AutoMesh=Yes   AtJoints=Yes   AtFrames=No   NumSegments=0   MaxLength=0   MaxDegrees=0
   Frame=56850   AutoMesh=Yes   AtJoints=Yes   AtFrames=No   NumSegments=0   MaxLength=0   MaxDegrees=0
   Frame=56851   AutoMesh=Yes   AtJoints=Yes   AtFrames=No   NumSegments=0   MaxLength=0   MaxDegrees=0
   Frame=56852   AutoMesh=Yes   AtJoints=Yes   AtFrames=No   NumSegments=0   MaxLength=0   MaxDegrees=0
   Frame=56853   AutoMesh=Yes   AtJoints=Yes   AtFrames=No   NumSegments=0   MaxLength=0   MaxDegrees=0
   Frame=56854   AutoMesh=Yes   AtJoints=Yes   AtFrames=No   NumSegments=0   MaxLength=0   MaxDegrees=0
   Frame=56855   AutoMesh=Yes   AtJoints=Yes   AtFrames=No   NumSegments=0   MaxLength=0   MaxDegrees=0
   Frame=56856   AutoMesh=Yes   AtJoints=Yes   AtFrames=No   NumSegments=0   MaxLength=0   MaxDegrees=0
   Frame=56857   AutoMesh=Yes   AtJoints=Yes   AtFrames=No   NumSegments=0   MaxLength=0   MaxDegrees=0
   Frame=56858   AutoMesh=Yes   AtJoints=Yes   AtFrames=No   NumSegments=0   MaxLength=0   MaxDegrees=0
   Frame=56859   AutoMesh=Yes   AtJoints=Yes   AtFrames=No   NumSegments=0   MaxLength=0   MaxDegrees=0
   Frame=56860   AutoMesh=Yes   AtJoints=Yes   AtFrames=No   NumSegments=0   MaxLength=0   MaxDegrees=0
   Frame=56861   AutoMesh=Yes   AtJoints=Yes   AtFrames=No   NumSegments=0   MaxLength=0   MaxDegrees=0
# ... 42 like lines cut
 
TABLE:  "FRAME DESIGN PROCEDURES"
   Frame=56842   DesignProc="From Material"
   Frame=56843   DesignProc="From Material"
   Frame=56844   DesignProc="From Material"
   Frame=56845   DesignProc="From Material"
   Frame=56846   DesignProc="From Material"
   Frame=56847   DesignProc="From Material"
   Frame=56848   DesignProc="From Material"
   Frame=56849   DesignProc="From Material"
   Frame=56850   DesignProc="From Material"
   Frame=56851   DesignProc="From Material"
   Frame=56852   DesignProc="From Material"
   Frame=56853   DesignProc="From Material"
   Frame=56854   DesignProc="From Material"
   Frame=56855   DesignProc="From Material"
   Frame=56856   DesignProc="From Material"
   Frame=56857   DesignProc="From Material"
   Frame=56858   DesignProc="From Material"
   Frame=56859   DesignProc="From Material"
   Frame=56860   DesignProc="From Material"
   Frame=56861   DesignProc="From Material"
# ... 12 like lines cut
   Frame=56874   DesignProc="No Design"
   Frame=56875   DesignProc="No Design"
   Frame=56876   DesignProc="From Material"
   Frame=56877   DesignProc="No Design"
   Frame=56878   DesignProc="No Design"
   Frame=56879   DesignProc="From Material"
   Frame=56880   DesignProc="No Design"
   Frame=56881   DesignProc="No Design"
   Frame=56882   DesignProc="From Material"
   Frame=56883   DesignProc="No Design"
   Frame=56884   DesignProc="No Design"
   Frame=56885   DesignProc="No Design"
   Frame=56886   DesignProc="No Design"
   Frame=56887   DesignProc="No Design"
   Frame=56888   DesignProc="No Design"
   Frame=56889   DesignProc="No Design"
   Frame=56890   DesignProc="No Design"
   Frame=56891   DesignProc="No Design"
   Frame=56892   DesignProc="No Design"
   Frame=56893   DesignProc="No Design"
   Frame=56894   DesignProc="No Design"
   Frame=56895   DesignProc="No Design"
   Frame=56896   DesignProc="No Design"
   Frame=56897   DesignProc="No Design"
   Frame=56898   DesignProc="No Design"
   Frame=56899   DesignProc="No Design"
   Frame=56900   DesignProc="No Design"
   Frame=56901   DesignProc="From Material"
   Frame=56902   DesignProc="From Material"
   Frame=56903   DesignProc="From Material"
 
TABLE:  "FRAME LOAD TRANSFER OPTIONS"
   Frame=56842   Transfer=Yes
   Frame=56843   Transfer=Yes
   Frame=56844   Transfer=Yes
   Frame=56845   Transfer=Yes
   Frame=56846   Transfer=Yes
   Frame=56847   Transfer=Yes
   Frame=56848   Transfer=Yes
   Frame=56849   Transfer=Yes
   Frame=56850   Transfer=Yes
   Frame=56851   Transfer=Yes
   Frame=56852   Transfer=Yes
   Frame=56853   Transfer=Yes
   Frame=56854   Transfer=Yes
   Frame=56855   Transfer=Yes
   Frame=56856   Transfer=Yes
   Frame=56857   Transfer=Yes
   Frame=56858   Transfer=Yes
   Frame=56859   Transfer=Yes
   Frame=56860   Transfer=Yes
   Frame=56861   Transfer=Yes
# ... 42 like lines cut
 
TABLE:  "FRAME LOCAL AXES ASSIGNMENTS 1 - TYPICAL"
   Frame=56873   Angle=90
   Frame=56876   Angle=90
   Frame=56879   Angle=90
   Frame=56882   Angle=90
 
TABLE:  "FRAME OUTPUT STATION ASSIGNMENTS"
   Frame=56842   StationType=MaxStaSpcg   MaxStaSpcg=0.5   AddAtElmInt=Yes   AddAtPtLoad=Yes
   Frame=56843   StationType=MaxStaSpcg   MaxStaSpcg=0.5   AddAtElmInt=Yes   AddAtPtLoad=Yes
   Frame=56844   StationType=MaxStaSpcg   MaxStaSpcg=0.5   AddAtElmInt=Yes   AddAtPtLoad=Yes
   Frame=56845   StationType=MaxStaSpcg   MaxStaSpcg=0.5   AddAtElmInt=Yes   AddAtPtLoad=Yes
   Frame=56846   StationType=MaxStaSpcg   MaxStaSpcg=0.5   AddAtElmInt=Yes   AddAtPtLoad=Yes
   Frame=56847   StationType=MaxStaSpcg   MaxStaSpcg=0.5   AddAtElmInt=Yes   AddAtPtLoad=Yes
   Frame=56848   StationType=MaxStaSpcg   MaxStaSpcg=0.5   AddAtElmInt=Yes   AddAtPtLoad=Yes
   Frame=56849   StationType=MaxStaSpcg   MaxStaSpcg=0.5   AddAtElmInt=Yes   AddAtPtLoad=Yes
   Frame=56850   StationType=MaxStaSpcg   MaxStaSpcg=0.5   AddAtElmInt=Yes   AddAtPtLoad=Yes
   Frame=56851   StationType=MaxStaSpcg   MaxStaSpcg=0.5   AddAtElmInt=Yes   AddAtPtLoad=Yes
   Frame=56852   StationType=MaxStaSpcg   MaxStaSpcg=0.5   AddAtElmInt=Yes   AddAtPtLoad=Yes
   Frame=56853   StationType=MaxStaSpcg   MaxStaSpcg=0.5   AddAtElmInt=Yes   AddAtPtLoad=Yes
   Frame=56854   StationType=MaxStaSpcg   MaxStaSpcg=0.5   AddAtElmInt=Yes   AddAtPtLoad=Yes
   Frame=56855   StationType=MaxStaSpcg   MaxStaSpcg=0.5   AddAtElmInt=Yes   AddAtPtLoad=Yes
   Frame=56856   StationType=MaxStaSpcg   MaxStaSpcg=0.5   AddAtElmInt=Yes   AddAtPtLoad=Yes
   Frame=56857   StationType=MaxStaSpcg   MaxStaSpcg=0.5   AddAtElmInt=Yes   AddAtPtLoad=Yes
   Frame=56858   StationType=MaxStaSpcg   MaxStaSpcg=0.5   AddAtElmInt=Yes   AddAtPtLoad=Yes
   Frame=56859   StationType=MaxStaSpcg   MaxStaSpcg=0.5   AddAtElmInt=Yes   AddAtPtLoad=Yes
   Frame=56860   StationType=MaxStaSpcg   MaxStaSpcg=0.5   AddAtElmInt=Yes   AddAtPtLoad=Yes
   Frame=56861   StationType=MaxStaSpcg   MaxStaSpcg=0.5   AddAtElmInt=Yes   AddAtPtLoad=Yes
# ... 11 like lines cut
   Frame=56873   StationType=MinNumSta   MinNumSta=3   AddAtElmInt=Yes   AddAtPtLoad=Yes
   Frame=56874   StationType=MinNumSta   MinNumSta=3   AddAtElmInt=Yes   AddAtPtLoad=Yes
   Frame=56875   StationType=MinNumSta   MinNumSta=3   AddAtElmInt=Yes   AddAtPtLoad=Yes
   Frame=56876   StationType=MinNumSta   MinNumSta=3   AddAtElmInt=Yes   AddAtPtLoad=Yes
   Frame=56877   StationType=MinNumSta   MinNumSta=3   AddAtElmInt=Yes   AddAtPtLoad=Yes
   Frame=56878   StationType=MinNumSta   MinNumSta=3   AddAtElmInt=Yes   AddAtPtLoad=Yes
   Frame=56879   StationType=MinNumSta   MinNumSta=3   AddAtElmInt=Yes   AddAtPtLoad=Yes
   Frame=56880   StationType=MinNumSta   MinNumSta=3   AddAtElmInt=Yes   AddAtPtLoad=Yes
   Frame=56881   StationType=MinNumSta   MinNumSta=3   AddAtElmInt=Yes   AddAtPtLoad=Yes
   Frame=56882   StationType=MinNumSta   MinNumSta=3   AddAtElmInt=Yes   AddAtPtLoad=Yes
   Frame=56883   StationType=MinNumSta   MinNumSta=3   AddAtElmInt=Yes   AddAtPtLoad=Yes
   Frame=56884   StationType=MinNumSta   MinNumSta=3   AddAtElmInt=Yes   AddAtPtLoad=Yes
   Frame=56885   StationType=MinNumSta   MinNumSta=3   AddAtElmInt=Yes   AddAtPtLoad=Yes
   Frame=56886   StationType=MinNumSta   MinNumSta=3   AddAtElmInt=Yes   AddAtPtLoad=Yes
   Frame=56887   StationType=MinNumSta   MinNumSta=3   AddAtElmInt=Yes   AddAtPtLoad=Yes
   Frame=56888   StationType=MinNumSta   MinNumSta=3   AddAtElmInt=Yes   AddAtPtLoad=Yes
   Frame=56889   StationType=MinNumSta   MinNumSta=3   AddAtElmInt=Yes   AddAtPtLoad=Yes
   Frame=56890   StationType=MinNumSta   MinNumSta=3   AddAtElmInt=Yes   AddAtPtLoad=Yes
   Frame=56891   StationType=MinNumSta   MinNumSta=3   AddAtElmInt=Yes   AddAtPtLoad=Yes
   Frame=56892   StationType=MinNumSta   MinNumSta=3   AddAtElmInt=Yes   AddAtPtLoad=Yes
# ... 8 like lines cut
   Frame=56901   StationType=MaxStaSpcg   MaxStaSpcg=0.5   AddAtElmInt=Yes   AddAtPtLoad=Yes
   Frame=56902   StationType=MaxStaSpcg   MaxStaSpcg=0.5   AddAtElmInt=Yes   AddAtPtLoad=Yes
   Frame=56903   StationType=MaxStaSpcg   MaxStaSpcg=0.5   AddAtElmInt=Yes   AddAtPtLoad=Yes
 
TABLE:  "FRAME SECTION ASSIGNMENTS"
   Frame=56842   AutoSelect=N.A.   AnalSect=TB   MatProp=Default
   Frame=56843   AutoSelect=N.A.   AnalSect=TB   MatProp=Default
   Frame=56844   AutoSelect=N.A.   AnalSect=TB   MatProp=Default
   Frame=56845   AutoSelect=N.A.   AnalSect=TB   MatProp=Default
   Frame=56846   AutoSelect=N.A.   AnalSect=TB   MatProp=Default
   Frame=56847   AutoSelect=N.A.   AnalSect=TB   MatProp=Default
   Frame=56848   AutoSelect=N.A.   AnalSect=TB   MatProp=Default
   Frame=56849   AutoSelect=N.A.   AnalSect=TB   MatProp=Default
   Frame=56850   AutoSelect=N.A.   AnalSect=TB   MatProp=Default
   Frame=56851   AutoSelect=N.A.   AnalSect=TB   MatProp=Default
   Frame=56852   AutoSelect=N.A.   AnalSect=TB   MatProp=Default
   Frame=56853   AutoSelect=N.A.   AnalSect=TB   MatProp=Default
   Frame=56854   AutoSelect=N.A.   AnalSect=TB   MatProp=Default
   Frame=56855   AutoSelect=N.A.   AnalSect=TB   MatProp=Default
   Frame=56856   AutoSelect=N.A.   AnalSect=TB   MatProp=Default
   Frame=56857   AutoSelect=N.A.   AnalSect=TB   MatProp=Default
   Frame=56858   AutoSelect=N.A.   AnalSect=LB   MatProp=Default
   Frame=56859   AutoSelect=N.A.   AnalSect=LB   MatProp=Default
   Frame=56860   AutoSelect=N.A.   AnalSect=LB   MatProp=Default
   Frame=56861   AutoSelect=N.A.   AnalSect=LB   MatProp=Default
   Frame=56862   AutoSelect=N.A.   AnalSect=LB   MatProp=Default
   Frame=56863   AutoSelect=N.A.   AnalSect=LB   MatProp=Default
   Frame=56864   AutoSelect=N.A.   AnalSect=LB   MatProp=Default
   Frame=56865   AutoSelect=N.A.   AnalSect=LB   MatProp=Default
   Frame=56866   AutoSelect=N.A.   AnalSect=LB   MatProp=Default
   Frame=56867   AutoSelect=N.A.   AnalSect=LB   MatProp=Default
   Frame=56868   AutoSelect=N.A.   AnalSect=LB   MatProp=Default
   Frame=56869   AutoSelect=N.A.   AnalSect=LB   MatProp=Default
   Frame=56870   AutoSelect=N.A.   AnalSect=LB   MatProp=Default
   Frame=56871   AutoSelect=N.A.   AnalSect=LB   MatProp=Default
   Frame=56872   AutoSelect=N.A.   AnalSect=LB   MatProp=Default
   Frame=56873   AutoSelect=N.A.   AnalSect=EB   MatProp=Default
   Frame=56874   AutoSelect=N.A.   AnalSect=Piles   MatProp=Default
   Frame=56875   AutoSelect=N.A.   AnalSect=Piles   MatProp=Default
   Frame=56876   AutoSelect=N.A.   AnalSect=EB   MatProp=Default
   Frame=56877   AutoSelect=N.A.   AnalSect=Piles   MatProp=Default
   Frame=56878   AutoSelect=N.A.   AnalSect=Piles   MatProp=Default
   Frame=56879   AutoSelect=N.A.   AnalSect=EB   MatProp=Default
   Frame=56880   AutoSelect=N.A.   AnalSect=Piles   MatProp=Default
   Frame=56881   AutoSelect=N.A.   AnalSect=Piles   MatProp=Default
   Frame=56882   AutoSelect=N.A.   AnalSect=EB   MatProp=Default
   Frame=56883   AutoSelect=N.A.   AnalSect=Piles   MatProp=Default
   Frame=56884   AutoSelect=N.A.   AnalSect=Piles   MatProp=Default
   Frame=56885   AutoSelect=N.A.   AnalSect=Piles   MatProp=Default
   Frame=56886   AutoSelect=N.A.   AnalSect=Piles   MatProp=Default
   Frame=56887   AutoSelect=N.A.   AnalSect=Piles   MatProp=Default
   Frame=56888   AutoSelect=N.A.   AnalSect=Piles   MatProp=Default
   Frame=56889   AutoSelect=N.A.   AnalSect=Piles   MatProp=Default
   Frame=56890   AutoSelect=N.A.   AnalSect=Piles   MatProp=Default
   Frame=56891   AutoSelect=N.A.   AnalSect=Piles   MatProp=Default
   Frame=56892   AutoSelect=N.A.   AnalSect=Piles   MatProp=Default
   Frame=56893   AutoSelect=N.A.   AnalSect=Piles   MatProp=Default
   Frame=56894   AutoSelect=N.A.   AnalSect=Piles   MatProp=Default
   Frame=56895   AutoSelect=N.A.   AnalSect=Piles   MatProp=Default
   Frame=56896   AutoSelect=N.A.   AnalSect=Piles   MatProp=Default
   Frame=56897   AutoSelect=N.A.   AnalSect=Piles   MatProp=Default
   Frame=56898   AutoSelect=N.A.   AnalSect=Piles   MatProp=Default
   Frame=56899   AutoSelect=N.A.   AnalSect=Piles   MatProp=Default
   Frame=56900   AutoSelect=N.A.   AnalSect=Piles   MatProp=Default
   Frame=56901   AutoSelect=N.A.   AnalSect=EB-1   MatProp=Default
   Frame=56902   AutoSelect=N.A.   AnalSect=EB-1   MatProp=Default
   Frame=56903   AutoSelect=N.A.   AnalSect=EB-1   MatProp=Default
 
TABLE:  "FRAME SECTION PROPERTIES 01 - GENERAL"
   SectionName=EB   Material=BTCT   Shape=Rectangular   t3=1.2   t2=0.5   Area=0.6   TorsConst=0.0369079665195795   I33=0.072   I22=0.0125   I23=0   AS2=0.5   AS3=0.5   S33Top=0.12   S33Bot=0.12   S22Left=0.05   S22Right=0.05   Z33=0.18 _
        Z22=0.075   R33=0.346410161513775   R22=0.144337567297406   CGOffset3=0   CGOffset2=0   EccV2=0   EccV3=0   Cw=0   Color=Yellow   FromFile=No   AMod=1   A2Mod=1   A3Mod=1   JMod=1   I2Mod=1   I3Mod=1   MMod=1   WMod=1
   SectionName=EB-1   Material=BTCT   Shape=Rectangular   t3=0.5   t2=0.5   Area=0.25   TorsConst=0.00880208333333333   I33=0.00520833333333333   I22=0.00520833333333333   I23=0   AS2=0.208333333333333   AS3=0.208333333333333 _
        S33Top=0.0208333333333333   S33Bot=0.0208333333333333   S22Left=0.0208333333333333   S22Right=0.0208333333333333   Z33=0.03125   Z22=0.03125   R33=0.144337567297406   R22=0.144337567297406   CGOffset3=0   CGOffset2=0   EccV2=0 _
        EccV3=0   Cw=0   Color=Gray8Dark   FromFile=No   AMod=1   A2Mod=1   A3Mod=1   JMod=1   I2Mod=1   I3Mod=1   MMod=1   WMod=1
   SectionName=LB   Material=BTCT   Shape=Rectangular   t3=0.5   t2=0.5   Area=0.25   TorsConst=0.00880208333333333   I33=0.00520833333333333   I22=0.00520833333333333   I23=0   AS2=0.208333333333333   AS3=0.208333333333333 _
        S33Top=0.0208333333333333   S33Bot=0.0208333333333333   S22Left=0.0208333333333333   S22Right=0.0208333333333333   Z33=0.03125   Z22=0.03125   R33=0.144337567297406   R22=0.144337567297406   CGOffset3=0   CGOffset2=0   EccV2=0 _
        EccV3=0   Cw=0   Color=Magenta   FromFile=No   AMod=1   A2Mod=1   A3Mod=1   JMod=1   I2Mod=1   I3Mod=1   MMod=1   WMod=1
   SectionName=Piles   Material=BTCTCOC   Shape=Pipe   t3=0.3   tw=0.06   Area=0.045238934211693   TorsConst=0.000692155693438903   I33=0.000346077846719452   I22=0.000346077846719452   I23=0   AS2=0.0235427106611872 _
        AS3=0.0235427106611872   S33Top=0.00230718564479634   S33Bot=0.00230718564479634   S22Left=0.00230718564479634   S22Right=0.00230718564479634   Z33=0.003528   Z22=0.003528   R33=0.0874642784226795   R22=0.0874642784226795 _
        CGOffset3=0   CGOffset2=0   EccV2=0   EccV3=0   Cw=0   Color=Blue   FromFile=No   AMod=1   A2Mod=1   A3Mod=1   JMod=1   I2Mod=1   I3Mod=1   MMod=1   WMod=1
   SectionName=TB   Material=BTCT   Shape=Rectangular   t3=0.5   t2=0.5   Area=0.25   TorsConst=0.00880208333333333   I33=0.00520833333333333   I22=0.00520833333333333   I23=0   AS2=0.208333333333333   AS3=0.208333333333333 _
        S33Top=0.0208333333333333   S33Bot=0.0208333333333333   S22Left=0.0208333333333333   S22Right=0.0208333333333333   Z33=0.03125   Z22=0.03125   R33=0.144337567297406   R22=0.144337567297406   CGOffset3=0   CGOffset2=0   EccV2=0 _
        EccV3=0   Cw=0   Color=Red   FromFile=No   AMod=1   A2Mod=1   A3Mod=1   JMod=1   I2Mod=1   I3Mod=1   MMod=1   WMod=1
 
TABLE:  "FRAME SECTION PROPERTIES 02 - CONCRETE COLUMN"
   SectionName=EB   RebarMatL=A706   RebarMatC=A706   ReinfConfig=Rectangular   LatReinf=Ties   Cover=0.05   NumBars3Dir=2   NumBars2Dir=2   BarSizeL=12d   BarSizeC=10d   SpacingC=0.1   NumCBars2=2   NumCBars3=2   ReinfType=Design
   SectionName=EB-1   RebarMatL=A706   RebarMatC=A706   ReinfConfig=Rectangular   LatReinf=Ties   Cover=0.05   NumBars3Dir=2   NumBars2Dir=2   BarSizeL=12d   BarSizeC=10d   SpacingC=0.1   NumCBars2=2   NumCBars3=2   ReinfType=Design
   SectionName=LB   RebarMatL=A706   RebarMatC=A706   ReinfConfig=Rectangular   LatReinf=Ties   Cover=0.05   NumBars3Dir=2   NumBars2Dir=2   BarSizeL=12d   BarSizeC=10d   SpacingC=0.1   NumCBars2=2   NumCBars3=2   ReinfType=Design
   SectionName=TB   RebarMatL=A706   RebarMatC=A706   ReinfConfig=Rectangular   LatReinf=Ties   Cover=0.05   NumBars3Dir=2   NumBars2Dir=2   BarSizeL=12d   BarSizeC=10d   SpacingC=0.1   NumCBars2=2   NumCBars3=2   ReinfType=Design
 
TABLE:  "FRAME SECTION PROPERTIES 13 - TIME DEPENDENT"
   SectionName=EB   TypeSize=Auto   AutoSFSize=1
   SectionName=EB-1   TypeSize=Auto   AutoSFSize=1
   SectionName=LB   TypeSize=Auto   AutoSFSize=1
   SectionName=Piles   TypeSize=Auto   AutoSFSize=1
   SectionName=TB   TypeSize=Auto   AutoSFSize=1
 
TABLE:  "FUNCTION - PLOT FUNCTIONS"
   PlotFunc="Input Energy"   Type=Energy   Component=Input   Mode=All
 
TABLE:  "FUNCTION - POWER SPECTRAL DENSITY - USER"
   Name=UNIFPSD   Frequency=0   Value=1
   Name=UNIFPSD   Frequency=1   Value=1
 
TABLE:  "FUNCTION - RESPONSE SPECTRUM - USER"
   Name=UNIFRS   Period=0   Accel=1   FuncDamp=0.05
   Name=UNIFRS   Period=1   Accel=1
 
TABLE:  "FUNCTION - STEADY STATE - USER"
   Name=UNIFSS   Frequency=0   Value=1
   Name=UNIFSS   Frequency=1   Value=1
 
TABLE:  "FUNCTION - TIME HISTORY - USER"
   Name=RAMPTH   Time=0   Value=0
   Name=RAMPTH   Time=1   Value=1
   Name=RAMPTH   Time=4   Value=1
   Name=UNIFTH   Time=0   Value=1
   Name=UNIFTH   Time=1   Value=1
 
TABLE:  "GRID LINES"
   CoordSys=GLOBAL   AxisDir=X   GridID=A   XRYZCoord=-10   LineType=Primary   LineColor=Gray8Dark   Visible=Yes   BubbleLoc=End   AllVisible=Yes   BubbleSize=0.9375
   CoordSys=GLOBAL   AxisDir=X   GridID=B   XRYZCoord=-9   LineType=Primary   LineColor=Gray8Dark   Visible=Yes   BubbleLoc=End
   CoordSys=GLOBAL   AxisDir=X   GridID=C   XRYZCoord=-4.5   LineType=Primary   LineColor=Gray8Dark   Visible=Yes   BubbleLoc=End
   CoordSys=GLOBAL   AxisDir=X   GridID=D   XRYZCoord=0   LineType=Primary   LineColor=Gray8Dark   Visible=Yes   BubbleLoc=End
   CoordSys=GLOBAL   AxisDir=X   GridID=E   XRYZCoord=4.5   LineType=Primary   LineColor=Gray8Dark   Visible=Yes   BubbleLoc=End
   CoordSys=GLOBAL   AxisDir=X   GridID=F   XRYZCoord=9   LineType=Primary   LineColor=Gray8Dark   Visible=Yes   BubbleLoc=End
   CoordSys=GLOBAL   AxisDir=X   GridID=G   XRYZCoord=10   LineType=Primary   LineColor=Gray8Dark   Visible=Yes   BubbleLoc=End
   CoordSys=GLOBAL   AxisDir=Y   GridID=1   XRYZCoord=-5.2   LineType=Primary   LineColor=Gray8Dark   Visible=Yes   BubbleLoc=Start
   CoordSys=GLOBAL   AxisDir=Y   GridID=2   XRYZCoord=-4.2   LineType=Primary   LineColor=Gray8Dark   Visible=Yes   BubbleLoc=Start
   CoordSys=GLOBAL   AxisDir=Y   GridID=3   XRYZCoord=0   LineType=Primary   LineColor=Gray8Dark   Visible=Yes   BubbleLoc=Start
   CoordSys=GLOBAL   AxisDir=Y   GridID=4   XRYZCoord=4.2   LineType=Primary   LineColor=Gray8Dark   Visible=Yes   BubbleLoc=Start
   CoordSys=GLOBAL   AxisDir=Y   GridID=5   XRYZCoord=4.8   LineType=Primary   LineColor=Gray8Dark   Visible=Yes   BubbleLoc=Start
   CoordSys=GLOBAL   AxisDir=Z   GridID=Z1   XRYZCoord=0   LineType=Primary   LineColor=Gray8Dark   Visible=Yes   BubbleLoc=End
   CoordSys=GLOBAL   AxisDir=Z   GridID=Z2   XRYZCoord=13   LineType=Primary   LineColor=Gray8Dark   Visible=Yes   BubbleLoc=End
 
TABLE:  "GROUPS 1 - DEFINITIONS"
   GroupName=ALL   Selection=Yes   SectionCut=Yes   Steel=Yes   Concrete=Yes   Aluminum=Yes   ColdFormed=Yes   Stage=Yes   Bridge=Yes   AutoSeismic=No   AutoWind=No   SelDesSteel=No   SelDesAlum=No   SelDesCold=No   MassWeight=Yes   Color=Red
   GroupName=Pile   Selection=Yes   SectionCut=Yes   Steel=Yes   Concrete=Yes   Aluminum=Yes   ColdFormed=Yes   Stage=Yes   Bridge=Yes   AutoSeismic=No   AutoWind=No   SelDesSteel=No   SelDesAlum=No   SelDesCold=No   MassWeight=Yes   Color=Gray8Dark
   GroupName=DN   Selection=Yes   SectionCut=Yes   Steel=Yes   Concrete=Yes   Aluminum=Yes   ColdFormed=Yes   Stage=Yes   Bridge=Yes   AutoSeismic=No   AutoWind=No   SelDesSteel=No   SelDesAlum=No   SelDesCold=No   MassWeight=Yes   Color=Yellow
   GroupName=Pile_Toe   Selection=Yes   SectionCut=Yes   Steel=Yes   Concrete=Yes   Aluminum=Yes   ColdFormed=Yes   Stage=Yes   Bridge=Yes   AutoSeismic=No   AutoWind=No   SelDesSteel=No   SelDesAlum=No   SelDesCold=No   MassWeight=Yes   Color=Green
   GroupName=Pile_Bend   Selection=Yes   SectionCut=Yes   Steel=Yes   Concrete=Yes   Aluminum=Yes   ColdFormed=Yes   Stage=Yes   Bridge=Yes   AutoSeismic=No   AutoWind=No   SelDesSteel=No   SelDesAlum=No   SelDesCold=No   MassWeight=Yes   Color=Cyan
   GroupName=Beam   Selection=Yes   SectionCut=Yes   Steel=Yes   Concrete=Yes   Aluminum=Yes   ColdFormed=Yes   Stage=Yes   Bridge=Yes   AutoSeismic=No   AutoWind=No   SelDesSteel=No   SelDesAlum=No   SelDesCold=No   MassWeight=Yes   Color=Blue
   GroupName=Piles   Selection=Yes   SectionCut=Yes   Steel=Yes   Concrete=Yes   Aluminum=Yes   ColdFormed=Yes   Stage=Yes   Bridge=Yes   AutoSeismic=No   AutoWind=No   SelDesSteel=No   SelDesAlum=No   SelDesCold=No   MassWeight=Yes   Color=Red
   GroupName=Beams   Selection=Yes   SectionCut=Yes   Steel=Yes   Concrete=Yes   Aluminum=Yes   ColdFormed=Yes   Stage=Yes   Bridge=Yes   AutoSeismic=No   AutoWind=No   SelDesSteel=No   SelDesAlum=No   SelDesCold=No   MassWeight=Yes   Color=Magenta
 
TABLE:  "GROUPS 2 - ASSIGNMENTS"
 
TABLE:  "JOINT COORDINATES"
   Joint=52652   CoordSys=GLOBAL   CoordType=Cartesian   XorR=-9   Y=-5   Z=0   SpecialJt=No   GUID=b17eb8d5-513c-4f3e-8ecf-9287071d2283
   Joint=52653   CoordSys=GLOBAL   CoordType=Cartesian   XorR=-9   Y=-3.5   Z=0   SpecialJt=No   GUID=5a9957c3-657c-440b-a097-f5ebe697348d
   Joint=52654   CoordSys=GLOBAL   CoordType=Cartesian   XorR=-3   Y=-5   Z=0   SpecialJt=No   GUID=0fa6da00-f1d4-413e-b84f-18d0aac05651
   Joint=52655   CoordSys=GLOBAL   CoordType=Cartesian   XorR=-3   Y=-3.5   Z=0   SpecialJt=No   GUID=48845509-845f-475b-acea-03041a9e3b94
   Joint=52656   CoordSys=GLOBAL   CoordType=Cartesian   XorR=3   Y=-5   Z=0   SpecialJt=No   GUID=8b70e99e-ec24-4d25-96ab-381b7a3c5be5
   Joint=52657   CoordSys=GLOBAL   CoordType=Cartesian   XorR=3   Y=-3.5   Z=0   SpecialJt=No   GUID=55b75a94-044d-448d-b9fe-043a4cc93c80
   Joint=52658   CoordSys=GLOBAL   CoordType=Cartesian   XorR=9   Y=-5   Z=0   SpecialJt=No   GUID=fa96503d-655f-49c4-a4f4-923ee37d233b
   Joint=52659   CoordSys=GLOBAL   CoordType=Cartesian   XorR=9   Y=-3.5   Z=0   SpecialJt=No   GUID=d63d1e9a-d858-4352-ac38-e550d089180f
   Joint=52660   CoordSys=GLOBAL   CoordType=Cartesian   XorR=-9   Y=0   Z=0   SpecialJt=No   GUID=085c90e7-5763-49ed-a843-308b91b16201
   Joint=52661   CoordSys=GLOBAL   CoordType=Cartesian   XorR=-3   Y=0   Z=0   SpecialJt=No   GUID=7d87e113-91da-42e4-a960-735ec782d833
   Joint=52662   CoordSys=GLOBAL   CoordType=Cartesian   XorR=3   Y=0   Z=0   SpecialJt=No   GUID=7b2ac11d-1907-4c0d-90df-508d4adf29ff
   Joint=52663   CoordSys=GLOBAL   CoordType=Cartesian   XorR=9   Y=0   Z=0   SpecialJt=No   GUID=72828121-1ce9-42f9-9b84-9c5bba07e5c9
   Joint=52664   CoordSys=GLOBAL   CoordType=Cartesian   XorR=-9   Y=3.5   Z=0   SpecialJt=No   GUID=9d252720-104f-41f1-9c3e-db97112dae21
   Joint=52665   CoordSys=GLOBAL   CoordType=Cartesian   XorR=-3   Y=3.5   Z=0   SpecialJt=No   GUID=92a8d9e6-19e5-4ad6-8b47-d5d53667ca09
   Joint=52666   CoordSys=GLOBAL   CoordType=Cartesian   XorR=3   Y=3.5   Z=0   SpecialJt=No   GUID=e7533f37-089f-4566-b0a3-c2fca5ffa868
   Joint=52667   CoordSys=GLOBAL   CoordType=Cartesian   XorR=9   Y=3.5   Z=0   SpecialJt=No   GUID=6b8fd50c-40aa-4e89-b253-c0f0fcb12852
   Joint=52668   CoordSys=GLOBAL   CoordType=Cartesian   XorR=-9   Y=5   Z=0   SpecialJt=No   GUID=2859f577-6085-41cb-a27a-0ddde0daf1a5
   Joint=52669   CoordSys=GLOBAL   CoordType=Cartesian   XorR=-3   Y=5   Z=0   SpecialJt=No   GUID=aac76e49-e5c0-4b31-a22f-30e41f58f54f
   Joint=52670   CoordSys=GLOBAL   CoordType=Cartesian   XorR=3   Y=5   Z=0   SpecialJt=No   GUID=9eba4b5e-af6e-4ed1-a8c5-edf899fbe234
   Joint=52671   CoordSys=GLOBAL   CoordType=Cartesian   XorR=9   Y=5   Z=0   SpecialJt=No   GUID=0b0282f3-72b8-4e9d-bc4e-e21200ea63f6
   Joint=52672   CoordSys=GLOBAL   CoordType=Cartesian   XorR=-10   Y=-3.5   Z=0   SpecialJt=No   GUID=e52c7a5a-4797-4e71-8ac5-76391cf2a69c
   Joint=52673   CoordSys=GLOBAL   CoordType=Cartesian   XorR=-10   Y=0   Z=0   SpecialJt=No   GUID=6b95d285-ca2b-4f92-8bc7-c6796af5e728
   Joint=52674   CoordSys=GLOBAL   CoordType=Cartesian   XorR=-10   Y=3.5   Z=0   SpecialJt=No   GUID=58af4d68-41f4-4023-815a-a86df2d63c63
   Joint=52675   CoordSys=GLOBAL   CoordType=Cartesian   XorR=10   Y=-3.5   Z=0   SpecialJt=No   GUID=e77aff8c-8645-41ad-a69a-1f7be5c3d7b6
   Joint=52676   CoordSys=GLOBAL   CoordType=Cartesian   XorR=10   Y=0   Z=0   SpecialJt=No   GUID=47a83ea5-b3be-4467-b340-01c1686a372a
   Joint=52677   CoordSys=GLOBAL   CoordType=Cartesian   XorR=10   Y=3.5   Z=0   SpecialJt=No   GUID=ac00f3ca-e697-4b08-ab94-c5dc702bd240
   Joint=52678   CoordSys=GLOBAL   CoordType=Cartesian   XorR=-9   Y=-3.5   Z=-3   SpecialJt=No   GUID=bdb558b6-29b3-4379-9cac-ae4df569c77d
   Joint=52679   CoordSys=GLOBAL   CoordType=Cartesian   XorR=-9   Y=-3.5   Z=-13.4180229476075   SpecialJt=No   GUID=c0903e8f-13a6-4e3f-9da2-6f73098ebb86
   Joint=52680   CoordSys=GLOBAL   CoordType=Cartesian   XorR=-9   Y=-3.5   Z=-37.9   SpecialJt=No   GUID=b0194302-c64f-4a80-8b56-d93c845068d5
   Joint=52681   CoordSys=GLOBAL   CoordType=Cartesian   XorR=-3   Y=-3.5   Z=-3   SpecialJt=No   GUID=5ab324bd-f985-49b1-bd30-4e4dea639153
   Joint=52682   CoordSys=GLOBAL   CoordType=Cartesian   XorR=-3   Y=-3.5   Z=-13.4180229476075   SpecialJt=No   GUID=6f566bc7-e3c7-4910-81f7-df6a6684ede3
   Joint=52683   CoordSys=GLOBAL   CoordType=Cartesian   XorR=-3   Y=-3.5   Z=-37.9   SpecialJt=No   GUID=7c3c5aab-353f-473d-9d1e-a9186e71acaa
   Joint=52684   CoordSys=GLOBAL   CoordType=Cartesian   XorR=3   Y=-3.5   Z=-3   SpecialJt=No   GUID=a493e1cc-4275-4918-8ab4-cd469b7f8cec
   Joint=52685   CoordSys=GLOBAL   CoordType=Cartesian   XorR=3   Y=-3.5   Z=-13.4180229476075   SpecialJt=No   GUID=6ed592eb-b35c-4120-8e11-2b90ca3fabb1
   Joint=52686   CoordSys=GLOBAL   CoordType=Cartesian   XorR=3   Y=-3.5   Z=-37.9   SpecialJt=No   GUID=055c6109-706a-48c0-b3bc-48e15c27c3ab
   Joint=52687   CoordSys=GLOBAL   CoordType=Cartesian   XorR=9   Y=-3.5   Z=-3   SpecialJt=No   GUID=eb8e0d65-6fce-4d81-aec3-31357aab61e7
   Joint=52688   CoordSys=GLOBAL   CoordType=Cartesian   XorR=9   Y=-3.5   Z=-13.4180229476075   SpecialJt=No   GUID=34a005d8-8a51-46d2-a8fc-c52c25ef388d
   Joint=52689   CoordSys=GLOBAL   CoordType=Cartesian   XorR=9   Y=-3.5   Z=-37.9   SpecialJt=No   GUID=4f3d2076-26f3-469a-ac3a-52e1c4a7b63e
   Joint=52690   CoordSys=GLOBAL   CoordType=Cartesian   XorR=-9   Y=0   Z=-13.4180229476075   SpecialJt=No   GUID=58b08188-596a-4047-97c3-2b53d0b4d305
   Joint=52691   CoordSys=GLOBAL   CoordType=Cartesian   XorR=-9   Y=0   Z=-37.9   SpecialJt=No   GUID=b0e71329-b101-4fc2-91e7-bd70edbe2f0a
   Joint=52692   CoordSys=GLOBAL   CoordType=Cartesian   XorR=-3   Y=0   Z=-13.4180229476075   SpecialJt=No   GUID=1bc7ddd1-b196-4d88-8cc7-2fbc0a665655
   Joint=52693   CoordSys=GLOBAL   CoordType=Cartesian   XorR=-3   Y=0   Z=-37.9   SpecialJt=No   GUID=861bca67-680e-4bf7-8ee7-6b5475cb2620
   Joint=52694   CoordSys=GLOBAL   CoordType=Cartesian   XorR=3   Y=0   Z=-13.4180229476075   SpecialJt=No   GUID=bf0ac090-13df-4b5c-8007-4ae2e3c1d22d
   Joint=52695   CoordSys=GLOBAL   CoordType=Cartesian   XorR=3   Y=0   Z=-37.9   SpecialJt=No   GUID=44de4605-c46d-4151-b331-61494957919b
   Joint=52696   CoordSys=GLOBAL   CoordType=Cartesian   XorR=9   Y=0   Z=-13.4180229476075   SpecialJt=No   GUID=a8682d37-7e67-4c79-9491-22a64c2b9db3
   Joint=52697   CoordSys=GLOBAL   CoordType=Cartesian   XorR=9   Y=0   Z=-37.9   SpecialJt=No   GUID=f278190d-0011-426f-a3db-73c3c0e5583f
   Joint=52698   CoordSys=GLOBAL   CoordType=Cartesian   XorR=-9   Y=3.5   Z=-13.4180229476075   SpecialJt=No   GUID=d2323639-488f-4a10-83f9-80cecf11bbbc
   Joint=52699   CoordSys=GLOBAL   CoordType=Cartesian   XorR=-9   Y=3.5   Z=-37.9   SpecialJt=No   GUID=877698bb-e98c-46df-bce8-0595d4661fe5
   Joint=52700   CoordSys=GLOBAL   CoordType=Cartesian   XorR=-3   Y=3.5   Z=-13.4180229476075   SpecialJt=No   GUID=afbd719e-3ecf-46a7-8275-97fe78e946bf
   Joint=52701   CoordSys=GLOBAL   CoordType=Cartesian   XorR=-3   Y=3.5   Z=-37.9   SpecialJt=No   GUID=4f72be03-77ca-4f4a-9a38-8bba6e778dbf
   Joint=52702   CoordSys=GLOBAL   CoordType=Cartesian   XorR=3   Y=3.5   Z=-13.4180229476075   SpecialJt=No   GUID=bed52f21-f4f7-4a7a-96f6-771ec4e7088b
   Joint=52703   CoordSys=GLOBAL   CoordType=Cartesian   XorR=3   Y=3.5   Z=-37.9   SpecialJt=No   GUID=f15c72ea-3d42-4e36-9d17-913d0a5c5108
   Joint=52704   CoordSys=GLOBAL   CoordType=Cartesian   XorR=9   Y=3.5   Z=-13.4180229476075   SpecialJt=No   GUID=e2e9a781-3610-4d5d-87ad-9606e2fd3e9e
   Joint=52705   CoordSys=GLOBAL   CoordType=Cartesian   XorR=9   Y=3.5   Z=-37.9   SpecialJt=No   GUID=55ec3407-06ac-4a03-bde7-647dfebd11f6
   Joint=52706   CoordSys=GLOBAL   CoordType=Cartesian   XorR=-10   Y=-5   Z=0   SpecialJt=No   GUID=c5a68ab2-571f-4927-8696-15d423da998a
   Joint=52707   CoordSys=GLOBAL   CoordType=Cartesian   XorR=10   Y=-5   Z=0   SpecialJt=No   GUID=5736f0eb-c3b9-428b-9521-7d68716aa122
   Joint=52708   CoordSys=GLOBAL   CoordType=Cartesian   XorR=-10   Y=5   Z=0   SpecialJt=No   GUID=6cf53748-d628-47d2-bd17-b0b62087a56f
   Joint=52709   CoordSys=GLOBAL   CoordType=Cartesian   XorR=10   Y=5   Z=0   SpecialJt=No   GUID=8913e853-f074-4cdf-8cce-482ab0cb98ff
 
TABLE:  "JOINT PATTERN DEFINITIONS"
   Pattern=Default
 
TABLE:  "JOINT RESTRAINT ASSIGNMENTS"
   Joint=52679   U1=Yes   U2=Yes   U3=No   R1=Yes   R2=Yes   R3=Yes
   Joint=52680   U1=No   U2=No   U3=Yes   R1=No   R2=No   R3=No
   Joint=52682   U1=Yes   U2=Yes   U3=No   R1=Yes   R2=Yes   R3=Yes
   Joint=52683   U1=No   U2=No   U3=Yes   R1=No   R2=No   R3=No
   Joint=52685   U1=Yes   U2=Yes   U3=No   R1=Yes   R2=Yes   R3=Yes
   Joint=52686   U1=No   U2=No   U3=Yes   R1=No   R2=No   R3=No
   Joint=52688   U1=Yes   U2=Yes   U3=No   R1=Yes   R2=Yes   R3=Yes
   Joint=52689   U1=No   U2=No   U3=Yes   R1=No   R2=No   R3=No
   Joint=52690   U1=Yes   U2=Yes   U3=No   R1=Yes   R2=Yes   R3=Yes
   Joint=52691   U1=No   U2=No   U3=Yes   R1=No   R2=No   R3=No
   Joint=52692   U1=Yes   U2=Yes   U3=No   R1=Yes   R2=Yes   R3=Yes
   Joint=52693   U1=No   U2=No   U3=Yes   R1=No   R2=No   R3=No
   Joint=52694   U1=Yes   U2=Yes   U3=No   R1=Yes   R2=Yes   R3=Yes
   Joint=52695   U1=No   U2=No   U3=Yes   R1=No   R2=No   R3=No
   Joint=52696   U1=Yes   U2=Yes   U3=No   R1=Yes   R2=Yes   R3=Yes
   Joint=52697   U1=No   U2=No   U3=Yes   R1=No   R2=No   R3=No
   Joint=52698   U1=Yes   U2=Yes   U3=No   R1=Yes   R2=Yes   R3=Yes
   Joint=52699   U1=No   U2=No   U3=Yes   R1=No   R2=No   R3=No
   Joint=52700   U1=Yes   U2=Yes   U3=No   R1=Yes   R2=Yes   R3=Yes
   Joint=52701   U1=No   U2=No   U3=Yes   R1=No   R2=No   R3=No
   Joint=52702   U1=Yes   U2=Yes   U3=No   R1=Yes   R2=Yes   R3=Yes
   Joint=52703   U1=No   U2=No   U3=Yes   R1=No   R2=No   R3=No
   Joint=52704   U1=Yes   U2=Yes   U3=No   R1=Yes   R2=Yes   R3=Yes
   Joint=52705   U1=No   U2=No   U3=Yes   R1=No   R2=No   R3=No
 
TABLE:  "LOAD CASE DEFINITIONS"
   Case=DEAD   Type=LinStatic   InitialCond=Zero   DesTypeOpt="Prog Det"   DesignType=Dead   DesActOpt="Prog Det"   DesignAct=Non-Composite   AutoType=None   RunCase=Yes
   Case=MODAL   Type=LinModal   InitialCond=Zero   DesTypeOpt="Prog Det"   DesignType=Other   DesActOpt="Prog Det"   DesignAct=Other   AutoType=None   RunCase=Yes
   Case=LL   Type=LinStatic   InitialCond=Zero   DesTypeOpt="Prog Det"   DesignType=Live   DesActOpt="Prog Det"   DesignAct="Short-Term Composite"   AutoType=None   RunCase=Yes
 
TABLE:  "LOAD PATTERN DEFINITIONS"
   LoadPat=DEAD   DesignType=Dead   SelfWtMult=1
   LoadPat=LL   DesignType=Live   SelfWtMult=0
 
TABLE:  "MASS SOURCE"
   MassSource=MSSSRC1   Elements=Yes   Masses=Yes   Loads=No   IsDefault=Yes
 
TABLE:  "MATERIAL PROPERTIES 01 - GENERAL"
   Material=A706   Type=Rebar   SymType=Uniaxial   TempDepend=No   Color=Gray8Dark   GUID=30185aab-1311-4f4b-9ffe-ddad707d22d9   Notes="ASTM A706 added 8/23/2025 4:27:57 PM"
   Material=BTCT   Type=Concrete   SymType=Isotropic   TempDepend=No   Color=Blue   Notes="Concrete added 24-Feb-23 16:30:01"
   Material=BTCTCOC   Type=Concrete   SymType=Isotropic   TempDepend=No   Color=Blue   Notes="Concrete added 24-Feb-23 16:30:01"
   Material=Steel   Type=Steel   SymType=Isotropic   TempDepend=No   Color=Magenta   GUID=2f952889-4898-4964-97a4-5fb5c5008d33   Notes="Steel added 8/24/2025 2:51:43 PM"
   Material=Tendon   Type=Tendon   SymType=Uniaxial   TempDepend=No   Color=Yellow   GUID=7dfcd093-823e-4b3a-b96f-35d5bcaf456f   Notes="Tendon added 8/24/2025 2:51:43 PM"
 
TABLE:  "MATERIAL PROPERTIES 02 - BASIC MECHANICAL PROPERTIES"
   Material=A706   UnitWeight=7.84904757236607   UnitMass=0.800380070686609   E1=20389019.1580383   A1=1.16999994421006E-05
   Material=BTCT   UnitWeight=2.40276966501002   UnitMass=0.245014307353044   E1=2900000   G12=1208333.33333333   U12=0.2   A1=9.9E-06
   Material=BTCTCOC   UnitWeight=2.40276966501002   UnitMass=0.245014307353044   E1=3800000000   G12=1583333333.33333   U12=0.2   A1=9.9E-06
   Material=Steel   UnitWeight=7.84904757236607   UnitMass=0.800380070686609   E1=20389019.1580383   G12=7841930.44539935   U12=0.3   A1=1.17E-05
   Material=Tendon   UnitWeight=7.84904757236607   UnitMass=0.800380070686609   E1=20037484.3449687   A1=1.16999994421006E-05
 
TABLE:  "MATERIAL PROPERTIES 03A - STEEL DATA"
   Material=Steel   Fy=35153.4813069626   Fu=45699.5256990514   EffFy=38668.8294376589   EffFu=50269.4782689565   SSCurveOpt=Simple   SSHysType=Kinematic   SHard=0.015   SMax=0.11   SRup=0.17   FinalSlope=-0.1   CoupModType="Von Mises"
 
TABLE:  "MATERIAL PROPERTIES 03B - CONCRETE DATA"
   Material=BTCT   Fc=2812.27850455701   eFc=2812.27850455701   LtWtConc=No   SSCurveOpt=Mander   SSHysType=Takeda   SFc=0.002   SCap=0.005   FinalSlope=-0.1   FAngle=0   DAngle=0   CoupModType="Modified Darwin-Pecknold"
   Material=BTCTCOC   Fc=2812.27850455701   eFc=2812.27850455701   LtWtConc=No   SSCurveOpt=Mander   SSHysType=Takeda   SFc=0.002   SCap=0.005   FinalSlope=-0.1   FAngle=0   DAngle=0   CoupModType="Modified Darwin-Pecknold"
 
TABLE:  "MATERIAL PROPERTIES 03E - REBAR DATA"
   Material=A706   Fy=42184.1775683551   Fu=56245.5700911402   EffFy=46402.5953251907   EffFu=61870.1271002542   SSCurveOpt=Simple   SSHysType=Kinematic   SHard=0.011   SCap=0.11   FinalSlope=-0.1   UseCTDef=No   CoupModType="Von Mises"
 
TABLE:  "MATERIAL PROPERTIES 03F - TENDON DATA"
   Material=Tendon   Fy=172322.365366731   Fu=189828.799057598   SSCurveOpt="270 ksi"   SSHysType=Kinematic   FinalSlope=-0.1   CoupModType="Von Mises"
 
TABLE:  "MATERIAL PROPERTIES 03J - COUPLED NONLINEAR VON MISES DATA"
   Material=A706   YieldStress=46402.5953251907   LinIsoHard=No   LinKinHard=No   NLIsoSaHard=No
   Material=Steel   YieldStress=38668.8294376589   LinIsoHard=No   LinKinHard=No   NLIsoSaHard=No
   Material=Tendon   YieldStress=172322.365366731   LinIsoHard=No   LinKinHard=No   NLIsoSaHard=No
 
TABLE:  "MATERIAL PROPERTIES 06 - DAMPING PARAMETERS"
   Material=A706   ModalRatio=0   VisMass=0   VisStiff=0   HysMass=0   HysStiff=0
   Material=BTCT   ModalRatio=0   VisMass=0   VisStiff=0   HysMass=0   HysStiff=0
   Material=BTCTCOC   ModalRatio=0   VisMass=0   VisStiff=0   HysMass=0   HysStiff=0
   Material=Steel   ModalRatio=0   VisMass=0   VisStiff=0   HysMass=0   HysStiff=0
   Material=Tendon   ModalRatio=0   VisMass=0   VisStiff=0   HysMass=0   HysStiff=0
 
TABLE:  "MATERIAL PROPERTIES 09 - ACCEPTANCE CRITERIA"
   Material=A706   IOTens=0.01   LSTens=0.02   CPTens=0.05   IOComp=-0.005   LSComp=-0.01   CPComp=-0.02
   Material=BTCT   IOTens=0.01   LSTens=0.02   CPTens=0.05   IOComp=-0.003   LSComp=-0.006   CPComp=-0.015   IgnoreTens=Yes
   Material=BTCTCOC   IOTens=0.01   LSTens=0.02   CPTens=0.05   IOComp=-0.003   LSComp=-0.006   CPComp=-0.015   IgnoreTens=Yes
   Material=Steel   IOTens=0.01   LSTens=0.02   CPTens=0.05   IOComp=-0.005   LSComp=-0.01   CPComp=-0.02
   Material=Tendon   IOTens=0.015   LSTens=0.023   CPTens=0.03   IOComp=-0.015   LSComp=-0.023   CPComp=-0.03
 
TABLE:  "OPTIONS - COLORS - DISPLAY"
   DeviceType=Screen   Points=Blue   LinesFrame=Blue   LinesFrmDL=Blue   LinesCable=Green   LinesTendon=Green   SpringLinks=Green   Restraints=Green   Releases=Green   Axes=Cyan   Text=Black   ShadowLines=Gray8Dark   GuideLines=Gray8Dark _
        Highlight=Red   Selection=10504778   AreaFillBot=Red   AreaFillTop=16744703   AreaFillSd=Red   AreaEdge=DarkRed   SolidF1=Red   SolidF2=Blue   SolidF3=Green   SolidF4=Yellow   SolidF5=White   SolidF6=Cyan   SolidEdge=DarkRed _
        Floor=Gray4   Background=White   BGLowLeft=White   BGLowRight=White   BGUpRight=White   Darkness=0.5
   DeviceType=Printer   Points=Gray8Dark   LinesFrame=Black   LinesFrmDL=Gray4   LinesCable=Black   LinesTendon=Black   SpringLinks=Gray8Dark   Restraints=Gray8Dark   Releases=Gray4   Axes=Black   Text=Black   ShadowLines=Gray4 _
        GuideLines=Gray4   Highlight=Black   Selection=Black   AreaFillBot=Gray4   AreaFillTop=Gray8Dark   AreaFillSd=Gray4   AreaEdge=Black   SolidF1=Gray1Light   SolidF2=Gray2   SolidF3=Gray3   SolidF4=Gray4   SolidF5=Gray5 _
        SolidF6=Gray6   SolidEdge=Black   Floor=Gray4   Background=White   BGLowLeft=White   BGLowRight=White   BGUpRight=White   Darkness=0.5
   DeviceType="Color Printer"   Points=Blue   LinesFrame=Blue   LinesFrmDL=Blue   LinesCable=Green   LinesTendon=Green   SpringLinks=Green   Restraints=Green   Releases=Green   Axes=Cyan   Text=Black   ShadowLines=Gray8Dark _
        GuideLines=Gray8Dark   Highlight=Red   Selection=10504778   AreaFillBot=Red   AreaFillTop=16744703   AreaFillSd=Red   AreaEdge=DarkRed   SolidF1=Red   SolidF2=Blue   SolidF3=Green   SolidF4=Yellow   SolidF5=White   SolidF6=Cyan _
        SolidEdge=DarkRed   Floor=Gray4   Background=White   BGLowLeft=White   BGLowRight=White   BGUpRight=White   Darkness=0.5
 
TABLE:  "OPTIONS - COLORS - OUTPUT"
   DeviceType=Screen   Contour1=13107400   Contour2=6553828   Contour3=Red   Contour4=16639   Contour5=Orange   Contour6=43775   Contour7=54527   Contour8=Yellow   Contour9=65408   Contour10=Green   Contour11=8453888   Contour12=Cyan _
        Contour13=16755200   Contour14=16733440   Contour15=Blue   Transpare=0.5   Ratio1=Cyan   Ratio2=Green   Ratio3=Yellow   Ratio4=Orange   Ratio5=Red   RatioNotD=Gray4   RatioNotC=Red   RatioVal1=0.5   RatioVal2=0.7   RatioVal3=0.9 _
        RatioVal4=1   DFillPos=Blue   DFillNeg=Red   DFillRPos=Green   DFillRNeg=Green
   DeviceType=Printer   Contour1=Black   Contour2=3158064   Contour3=4210752   Contour4=5263440   Contour5=6316128   Contour6=7368816   Contour7=Gray8Dark   Contour8=Gray7   Contour9=Gray6   Contour10=Gray5   Contour11=Gray4 _
        Contour12=Gray3   Contour13=Gray2   Contour14=Gray1Light   Contour15=White   Transpare=0   Ratio1=Gray2   Ratio2=Gray4   Ratio3=Gray8Dark   Ratio4=4210752   Ratio5=Black   RatioNotD=Gray4   RatioNotC=Black   RatioVal1=0.5 _
        RatioVal2=0.7   RatioVal3=0.9   RatioVal4=1   DFillPos=Gray8Dark   DFillNeg=Gray8Dark   DFillRPos=4210752   DFillRNeg=4210752
   DeviceType="Color Printer"   Contour1=13107400   Contour2=6553828   Contour3=Red   Contour4=16639   Contour5=Orange   Contour6=43775   Contour7=54527   Contour8=Yellow   Contour9=65408   Contour10=Green   Contour11=8453888 _
        Contour12=Cyan   Contour13=16755200   Contour14=16733440   Contour15=Blue   Transpare=0   Ratio1=Cyan   Ratio2=Green   Ratio3=Yellow   Ratio4=Orange   Ratio5=Red   RatioNotD=Gray4   RatioNotC=Red   RatioVal1=0.5   RatioVal2=0.7 _
        RatioVal3=0.9   RatioVal4=1   DFillPos=Blue   DFillNeg=Red   DFillRPos=Green   DFillRNeg=Green
 
TABLE:  "OVERWRITES - CONCRETE DESIGN - CSA-A233-14"
   Frame=56842   DesignSect="Program Determined"   FrameType="Program Determined"   RLLF=0   XLMajor=0   XLMinor=0   XKMajor=0   XKMinor=0   CmMajor=0   CmMinor=0   DbMajor=0   DbMinor=0   DsMajor=0   DsMinor=0   Rd=0   Ro=0   MaxAggSize=0
   Frame=56843   DesignSect="Program Determined"   FrameType="Program Determined"   RLLF=0   XLMajor=0   XLMinor=0   XKMajor=0   XKMinor=0   CmMajor=0   CmMinor=0   DbMajor=0   DbMinor=0   DsMajor=0   DsMinor=0   Rd=0   Ro=0   MaxAggSize=0
   Frame=56844   DesignSect="Program Determined"   FrameType="Program Determined"   RLLF=0   XLMajor=0   XLMinor=0   XKMajor=0   XKMinor=0   CmMajor=0   CmMinor=0   DbMajor=0   DbMinor=0   DsMajor=0   DsMinor=0   Rd=0   Ro=0   MaxAggSize=0
   Frame=56845   DesignSect="Program Determined"   FrameType="Program Determined"   RLLF=0   XLMajor=0   XLMinor=0   XKMajor=0   XKMinor=0   CmMajor=0   CmMinor=0   DbMajor=0   DbMinor=0   DsMajor=0   DsMinor=0   Rd=0   Ro=0   MaxAggSize=0
   Frame=56846   DesignSect="Program Determined"   FrameType="Program Determined"   RLLF=0   XLMajor=0   XLMinor=0   XKMajor=0   XKMinor=0   CmMajor=0   CmMinor=0   DbMajor=0   DbMinor=0   DsMajor=0   DsMinor=0   Rd=0   Ro=0   MaxAggSize=0
   Frame=56847   DesignSect="Program Determined"   FrameType="Program Determined"   RLLF=0   XLMajor=0   XLMinor=0   XKMajor=0   XKMinor=0   CmMajor=0   CmMinor=0   DbMajor=0   DbMinor=0   DsMajor=0   DsMinor=0   Rd=0   Ro=0   MaxAggSize=0
   Frame=56848   DesignSect="Program Determined"   FrameType="Program Determined"   RLLF=0   XLMajor=0   XLMinor=0   XKMajor=0   XKMinor=0   CmMajor=0   CmMinor=0   DbMajor=0   DbMinor=0   DsMajor=0   DsMinor=0   Rd=0   Ro=0   MaxAggSize=0
   Frame=56849   DesignSect="Program Determined"   FrameType="Program Determined"   RLLF=0   XLMajor=0   XLMinor=0   XKMajor=0   XKMinor=0   CmMajor=0   CmMinor=0   DbMajor=0   DbMinor=0   DsMajor=0   DsMinor=0   Rd=0   Ro=0   MaxAggSize=0
   Frame=56850   DesignSect="Program Determined"   FrameType="Program Determined"   RLLF=0   XLMajor=0   XLMinor=0   XKMajor=0   XKMinor=0   CmMajor=0   CmMinor=0   DbMajor=0   DbMinor=0   DsMajor=0   DsMinor=0   Rd=0   Ro=0   MaxAggSize=0
   Frame=56851   DesignSect="Program Determined"   FrameType="Program Determined"   RLLF=0   XLMajor=0   XLMinor=0   XKMajor=0   XKMinor=0   CmMajor=0   CmMinor=0   DbMajor=0   DbMinor=0   DsMajor=0   DsMinor=0   Rd=0   Ro=0   MaxAggSize=0
   Frame=56852   DesignSect="Program Determined"   FrameType="Program Determined"   RLLF=0   XLMajor=0   XLMinor=0   XKMajor=0   XKMinor=0   CmMajor=0   CmMinor=0   DbMajor=0   DbMinor=0   DsMajor=0   DsMinor=0   Rd=0   Ro=0   MaxAggSize=0
   Frame=56853   DesignSect="Program Determined"   FrameType="Program Determined"   RLLF=0   XLMajor=0   XLMinor=0   XKMajor=0   XKMinor=0   CmMajor=0   CmMinor=0   DbMajor=0   DbMinor=0   DsMajor=0   DsMinor=0   Rd=0   Ro=0   MaxAggSize=0
   Frame=56854   DesignSect="Program Determined"   FrameType="Program Determined"   RLLF=0   XLMajor=0   XLMinor=0   XKMajor=0   XKMinor=0   CmMajor=0   CmMinor=0   DbMajor=0   DbMinor=0   DsMajor=0   DsMinor=0   Rd=0   Ro=0   MaxAggSize=0
   Frame=56855   DesignSect="Program Determined"   FrameType="Program Determined"   RLLF=0   XLMajor=0   XLMinor=0   XKMajor=0   XKMinor=0   CmMajor=0   CmMinor=0   DbMajor=0   DbMinor=0   DsMajor=0   DsMinor=0   Rd=0   Ro=0   MaxAggSize=0
   Frame=56856   DesignSect="Program Determined"   FrameType="Program Determined"   RLLF=0   XLMajor=0   XLMinor=0   XKMajor=0   XKMinor=0   CmMajor=0   CmMinor=0   DbMajor=0   DbMinor=0   DsMajor=0   DsMinor=0   Rd=0   Ro=0   MaxAggSize=0
   Frame=56857   DesignSect="Program Determined"   FrameType="Program Determined"   RLLF=0   XLMajor=0   XLMinor=0   XKMajor=0   XKMinor=0   CmMajor=0   CmMinor=0   DbMajor=0   DbMinor=0   DsMajor=0   DsMinor=0   Rd=0   Ro=0   MaxAggSize=0
   Frame=56858   DesignSect="Program Determined"   FrameType="Program Determined"   RLLF=0   XLMajor=0   XLMinor=0   XKMajor=0   XKMinor=0   CmMajor=0   CmMinor=0   DbMajor=0   DbMinor=0   DsMajor=0   DsMinor=0   Rd=0   Ro=0   MaxAggSize=0
   Frame=56859   DesignSect="Program Determined"   FrameType="Program Determined"   RLLF=0   XLMajor=0   XLMinor=0   XKMajor=0   XKMinor=0   CmMajor=0   CmMinor=0   DbMajor=0   DbMinor=0   DsMajor=0   DsMinor=0   Rd=0   Ro=0   MaxAggSize=0
   Frame=56860   DesignSect="Program Determined"   FrameType="Program Determined"   RLLF=0   XLMajor=0   XLMinor=0   XKMajor=0   XKMinor=0   CmMajor=0   CmMinor=0   DbMajor=0   DbMinor=0   DsMajor=0   DsMinor=0   Rd=0   Ro=0   MaxAggSize=0
   Frame=56861   DesignSect="Program Determined"   FrameType="Program Determined"   RLLF=0   XLMajor=0   XLMinor=0   XKMajor=0   XKMinor=0   CmMajor=0   CmMinor=0   DbMajor=0   DbMinor=0   DsMajor=0   DsMinor=0   Rd=0   Ro=0   MaxAggSize=0
# ... 18 like lines cut
 
TABLE:  "PREFERENCES - ALUMINUM DESIGN - AA 2015"
   THDesign=Envelopes   SRatioLimit=1   Provision=ASD   LatFact=1.33333333333333   UseLatFact=No   Bridge=No   OmegaTy=1.65   OmegaTr=1.95   OmegaC=1.65   OmegaBo=1.65   OmegaBr=1.95   OmegaVo=1.65   OmegaVr=1.95
 
TABLE:  "PREFERENCES - COLD FORMED DESIGN - AISI-ASD96"
   THDesign=Envelopes   FrameType="Braced Frame"   SRatioLimit=1   MaxIter=1   OmegaBS=1.67   OmegaBUS=1.67   OmegaBLTB=1.67   OmegaVS=1.67   OmegaVNS=1.5   OmegaT=1.67   OmegaC=1.8
 
TABLE:  "PREFERENCES - CONCRETE DESIGN - CSA-A233-14"
   THDesign=Envelopes   NumCurves=24   NumPoints=11   MinEccen=Yes   BCCDesign=Yes   CTorsion=Yes   PatLLF=0.75   UFLimit=0.95   PhiS=0.85   PhiC=0.65
 
TABLE:  "PREFERENCES - CONCRETE SHELL DESIGN - EUROCODE 2-2004"
   Country="CEN Default"   GammaS=1.15   GammaC=1.5   AlphaCC=1
 
TABLE:  "PREFERENCES - DIMENSIONAL"
   MergeTol=0.001   FineGrid=0.25   Nudge=0.25   SelectTol=3   SnapTol=12   SLineThick=1   PLineThick=4   MaxFont=8   MinFont=3   AutoZoom=10   ShrinkFact=70   TextFileLen=240
 
TABLE:  "PREFERENCES - STEEL DESIGN - AISC 360-10"
   THDesign=Envelopes   FrameType=SMF   PatLLF=0.75   SRatioLimit=0.95   MaxIter=1   SDC=D   SeisCode=No   SeisLoad=No   ImpFactor=1   SystemRho=1   SystemSds=0.5   SystemR=8   SystemCd=5.5   Omega0=3   Provision=LRFD _
        AMethod="Direct Analysis"   SOMethod="General 2nd Order"   SRMethod="Tau-b Fixed"   NLCoeff=0.002   PhiB=0.9   PhiC=0.9   PhiTY=0.9   PhiTF=0.75   PhiV=0.9   PhiVRolledI=1   PhiVT=0.9   PlugWeld=Yes   HSSWelding=ERW   HSSReduceT=No _
        CheckDefl=No   DLRat=120   SDLAndLLRat=120   LLRat=360   TotalRat=240   NetRat=240
 
TABLE:  "PROGRAM CONTROL"
   ProgramName=SAP2000   Version=24.0.0   CurrUnits="Tonf, m, C"   SteelCode="AISC 360-10"   ConcCode="CSA A23.3-14"   AlumCode="AA 2015"   ColdCode=AISI-ASD96   RegenHinge=Yes
 
TABLE:  "PROJECT INFORMATION"
   Item="Company Name"   Data=po
   Item="Client Name"
   Item="Project Name"
   Item="Project Number"
   Item="Model Name"
   Item="Model Description"
   Item="Revision Number"
   Item="Frame Type"
   Item=Engineer
   Item=Checker
   Item=Supervisor
   Item="Issue Code"
   Item="Design Code"
 
TABLE:  "REBAR SIZES"
   RebarID=#2   Area=3.2258E-05   Diameter=0.00635
   RebarID=#3   Area=7.09675996154547E-05   Diameter=0.009525
   RebarID=#4   Area=0.000129032001922727   Diameter=0.0127
   RebarID=#5   Area=0.000199999601538181   Diameter=0.015875
   RebarID=#6   Area=0.000283870398461819   Diameter=0.01905
   RebarID=#7   Area=0.000387096015381813   Diameter=0.022225
   RebarID=#8   Area=0.000509676413843632   Diameter=0.0254
   RebarID=#9   Area=0.00064516   Diameter=0.0286512005329132
   RebarID=#10   Area=0.00081935318769455   Diameter=0.0322579995155334
   RebarID=#11   Area=0.00100644956308365   Diameter=0.0358139991521835
   RebarID=#14   Area=0.00145161   Diameter=0.0430021989583969
   RebarID=#18   Area=0.00258064   Diameter=0.0573277992248535
   RebarID=10M   Area=0.000100000004162606   Diameter=0.0113000003604438
   RebarID=15M   Area=0.000200000008325212   Diameter=0.0160000002402959
   RebarID=20M   Area=0.000300000012487818   Diameter=0.0195000002928606
   RebarID=25M   Area=0.000500000020813031   Diameter=0.0252000011414055
   RebarID=30M   Area=0.000700000029138243   Diameter=0.0299000000675832
   RebarID=35M   Area=0.00100000004162606   Diameter=0.0357000012990997
   RebarID=45M   Area=0.00150000006243909   Diameter=0.0437000014192476
   RebarID=55M   Area=0.00250000010406515   Diameter=0.056400002372922
   RebarID=6d   Area=2.83000004150781E-05   Diameter=0.00600000009011096
   RebarID=8d   Area=5.03000013308514E-05   Diameter=0.00800000012014795
   RebarID=10d   Area=7.85000032676458E-05   Diameter=0.0100000001501849
   RebarID=12d   Area=0.000113000004703745   Diameter=0.0120000001802219
   RebarID=14d   Area=0.000154000006410413   Diameter=0.0140000002102589
   RebarID=16d   Area=0.000201000008366838   Diameter=0.0160000002402959
   RebarID=20d   Area=0.000314000013070583   Diameter=0.0200000003003699
   RebarID=25d   Area=0.000491000020438396   Diameter=0.0250000003754623
   RebarID=26d   Area=0.000531000022103439   Diameter=0.0260000003904808
   RebarID=28d   Area=0.000616000025641654   Diameter=0.0280000004205178
   RebarID=N12   Area=0.000113000004703745   Diameter=0.0120000001802219
   RebarID=N16   Area=0.000201000008366838   Diameter=0.0160000002402959
   RebarID=N20   Area=0.000314000013070583   Diameter=0.0200000003003699
   RebarID=N24   Area=0.00045200001881498   Diameter=0.0240000003604438
   RebarID=N28   Area=0.000616000025641654   Diameter=0.0280000004205178
   RebarID=N32   Area=0.000804000033467353   Diameter=0.0320000004805918
   RebarID=N36   Area=0.00102000004245858   Diameter=0.0360000005406658
 
TABLE:  "SOLID PROPERTY DEFINITIONS"
   SolidProp=Solid1   Material=BTCT   MatAngleA=0   MatAngleB=0   MatAngleC=0   InComp=Yes   Color=Gray8Dark
 
END TABLE DATA
