File D:\ResearchLab\02_Projects\02_Projects\Tap chi XD_SFOA\code\SOO_MPJ\MPJ_Sap\SOO_Cost_W08\MPJ_8.$2k was saved on m/d/yy at h:mm:ss
 
TABLE:  "ACTIVE DEGREES OF FREEDOM"
   UX=Yes   UY=Yes   UZ=Yes   RX=Yes   RY=Yes   RZ=Yes
 
TABLE:  "ANALYSIS OPTIONS"
   Solver=Advanced   SolverProc=Auto   Force32Bit=No   StiffCase=None   GeomMod=None   HingeOpt="In Elements"   NumAThreads=0   MaxFileSize=0   NumDThreads=0   NumRThreads=0   UseMMFiles="Program Determined"   AllowDiff=No
 
TABLE:  "AREA AUTO MESH ASSIGNMENTS"
   Area=314085   MeshType="Number of Elements"   MeshGroup=ALL   Number1=3   Number2=3   LocalEdge=No   LocalFace=No   SuppEdge=No   SuppFace=No   SubMesh=No
   Area=314086   MeshType="Number of Elements"   MeshGroup=ALL   Number1=3   Number2=3   LocalEdge=No   LocalFace=No   SuppEdge=No   SuppFace=No   SubMesh=No
   Area=314087   MeshType="Number of Elements"   MeshGroup=ALL   Number1=3   Number2=3   LocalEdge=No   LocalFace=No   SuppEdge=No   SuppFace=No   SubMesh=No
   Area=314088   MeshType="Number of Elements"   MeshGroup=ALL   Number1=3   Number2=3   LocalEdge=No   LocalFace=No   SuppEdge=No   SuppFace=No   SubMesh=No
   Area=314089   MeshType="Number of Elements"   MeshGroup=ALL   Number1=3   Number2=3   LocalEdge=No   LocalFace=No   SuppEdge=No   SuppFace=No   SubMesh=No
   Area=314090   MeshType="Number of Elements"   MeshGroup=ALL   Number1=3   Number2=3   LocalEdge=No   LocalFace=No   SuppEdge=No   SuppFace=No   SubMesh=No
   Area=314091   MeshType="Number of Elements"   MeshGroup=ALL   Number1=3   Number2=3   LocalEdge=No   LocalFace=No   SuppEdge=No   SuppFace=No   SubMesh=No
   Area=314092   MeshType="Number of Elements"   MeshGroup=ALL   Number1=3   Number2=3   LocalEdge=No   LocalFace=No   SuppEdge=No   SuppFace=No   SubMesh=No
   Area=314093   MeshType="Number of Elements"   MeshGroup=ALL   Number1=3   Number2=3   LocalEdge=No   LocalFace=No   SuppEdge=No   SuppFace=No   SubMesh=No
   Area=314094   MeshType="Number of Elements"   MeshGroup=ALL   Number1=3   Number2=3   LocalEdge=No   LocalFace=No   SuppEdge=No   SuppFace=No   SubMesh=No
   Area=314095   MeshType="Number of Elements"   MeshGroup=ALL   Number1=3   Number2=3   LocalEdge=No   LocalFace=No   SuppEdge=No   SuppFace=No   SubMesh=No
   Area=314096   MeshType="Number of Elements"   MeshGroup=ALL   Number1=3   Number2=3   LocalEdge=No   LocalFace=No   SuppEdge=No   SuppFace=No   SubMesh=No
   Area=314097   MeshType="Number of Elements"   MeshGroup=ALL   Number1=3   Number2=3   LocalEdge=No   LocalFace=No   SuppEdge=No   SuppFace=No   SubMesh=No
   Area=314098   MeshType="Number of Elements"   MeshGroup=ALL   Number1=3   Number2=3   LocalEdge=No   LocalFace=No   SuppEdge=No   SuppFace=No   SubMesh=No
   Area=314099   MeshType="Number of Elements"   MeshGroup=ALL   Number1=3   Number2=3   LocalEdge=No   LocalFace=No   SuppEdge=No   SuppFace=No   SubMesh=No
   Area=314100   MeshType="Number of Elements"   MeshGroup=ALL   Number1=3   Number2=3   LocalEdge=No   LocalFace=No   SuppEdge=No   SuppFace=No   SubMesh=No
   Area=314101   MeshType="Number of Elements"   MeshGroup=ALL   Number1=3   Number2=3   LocalEdge=No   LocalFace=No   SuppEdge=No   SuppFace=No   SubMesh=No
   Area=314102   MeshType="Number of Elements"   MeshGroup=ALL   Number1=3   Number2=3   LocalEdge=No   LocalFace=No   SuppEdge=No   SuppFace=No   SubMesh=No
   Area=314103   MeshType="Number of Elements"   MeshGroup=ALL   Number1=3   Number2=3   LocalEdge=No   LocalFace=No   SuppEdge=No   SuppFace=No   SubMesh=No
   Area=314104   MeshType="Number of Elements"   MeshGroup=ALL   Number1=3   Number2=3   LocalEdge=No   LocalFace=No   SuppEdge=No   SuppFace=No   SubMesh=No
# ... 20 like lines cut
 
TABLE:  "AREA LOADS - UNIFORM"
   Area=314085   LoadPat=LL   CoordSys=GLOBAL   Dir=Gravity   UnifLoad=1.00034158457019
   Area=314086   LoadPat=LL   CoordSys=GLOBAL   Dir=Gravity   UnifLoad=1.00034158457019
   Area=314087   LoadPat=LL   CoordSys=GLOBAL   Dir=Gravity   UnifLoad=1.00034158457019
   Area=314088   LoadPat=LL   CoordSys=GLOBAL   Dir=Gravity   UnifLoad=1.00034158457019
   Area=314089   LoadPat=LL   CoordSys=GLOBAL   Dir=Gravity   UnifLoad=1.00034158457019
   Area=314090   LoadPat=LL   CoordSys=GLOBAL   Dir=Gravity   UnifLoad=1.00034158457019
   Area=314091   LoadPat=LL   CoordSys=GLOBAL   Dir=Gravity   UnifLoad=1.00034158457019
   Area=314092   LoadPat=LL   CoordSys=GLOBAL   Dir=Gravity   UnifLoad=1.00034158457019
   Area=314093   LoadPat=LL   CoordSys=GLOBAL   Dir=Gravity   UnifLoad=1.00034158457019
   Area=314094   LoadPat=LL   CoordSys=GLOBAL   Dir=Gravity   UnifLoad=1.00034158457019
   Area=314095   LoadPat=LL   CoordSys=GLOBAL   Dir=Gravity   UnifLoad=1.00034158457019
   Area=314096   LoadPat=LL   CoordSys=GLOBAL   Dir=Gravity   UnifLoad=1.00034158457019
   Area=314097   LoadPat=LL   CoordSys=GLOBAL   Dir=Gravity   UnifLoad=1.00034158457019
   Area=314098   LoadPat=LL   CoordSys=GLOBAL   Dir=Gravity   UnifLoad=1.00034158457019
   Area=314099   LoadPat=LL   CoordSys=GLOBAL   Dir=Gravity   UnifLoad=1.00034158457019
   Area=314100   LoadPat=LL   CoordSys=GLOBAL   Dir=Gravity   UnifLoad=1.00034158457019
   Area=314101   LoadPat=LL   CoordSys=GLOBAL   Dir=Gravity   UnifLoad=1.00034158457019
   Area=314102   LoadPat=LL   CoordSys=GLOBAL   Dir=Gravity   UnifLoad=1.00034158457019
   Area=314103   LoadPat=LL   CoordSys=GLOBAL   Dir=Gravity   UnifLoad=1.00034158457019
   Area=314104   LoadPat=LL   CoordSys=GLOBAL   Dir=Gravity   UnifLoad=1.00034158457019
# ... 20 like lines cut
 
TABLE:  "AREA SECTION ASSIGNMENTS"
   Area=314085   Section=Deck   MatProp=Default
   Area=314086   Section=Deck   MatProp=Default
   Area=314087   Section=Deck   MatProp=Default
   Area=314088   Section=Deck   MatProp=Default
   Area=314089   Section=Deck   MatProp=Default
   Area=314090   Section=Deck   MatProp=Default
   Area=314091   Section=Deck   MatProp=Default
   Area=314092   Section=Deck   MatProp=Default
   Area=314093   Section=Deck   MatProp=Default
   Area=314094   Section=Deck   MatProp=Default
   Area=314095   Section=Deck   MatProp=Default
   Area=314096   Section=Deck   MatProp=Default
   Area=314097   Section=Deck   MatProp=Default
   Area=314098   Section=Deck   MatProp=Default
   Area=314099   Section=Deck   MatProp=Default
   Area=314100   Section=Deck   MatProp=Default
   Area=314101   Section=Deck   MatProp=Default
   Area=314102   Section=Deck   MatProp=Default
   Area=314103   Section=Deck   MatProp=Default
   Area=314104   Section=Deck   MatProp=Default
# ... 20 like lines cut
 
TABLE:  "AREA SECTION PROPERTIES"
   Section=Deck   Material=BTCT   MatAngle=0   AreaType=Shell   Type=Shell-Thin   DrillDOF=Yes   Thickness=0.3   BendThick=0.3   Color=Green   F11Mod=1   F22Mod=1   F12Mod=1   M11Mod=1   M22Mod=1   M12Mod=1   V13Mod=1   V23Mod=1   MMod=1 _
        WMod=1   Notes="Added 24-Feb-23 16:56:47"
 
TABLE:  "AREA SECTION PROPERTY DESIGN PARAMETERS"
   Section=Deck   RebarMat=None   RebarOpt=Default
 
TABLE:  "AREA SECTION PROPERTY - TIME DEPENDENT"
   Section=Deck   TypeSize=User   AutoSFSize=1   UserValSize=0.1
 
TABLE:  "AUTO COMBINATION OPTION DATA 01 - GENERAL"
   DesignType=Concrete   AutoGen=Yes
 
TABLE:  "AUTO COMBINATION OPTION DATA 02 - USER DATA"
   DesignType=Concrete   LSType=Strength   LCName=DEAD
   DesignType=Concrete   LSType=Strength   LCName=LL
 
TABLE:  "AUTO WAVE 3 - WAVE CHARACTERISTICS - GENERAL"
   WaveChar=Default   WaveType="From Theory"   KinFactor=1   SWaterDepth=45   WaveHeight=18   WavePeriod=12   WaveTheory=Linear
 
TABLE:  "CASE - MODAL 1 - GENERAL"
   Case=MODAL   ModeType=Eigen   MaxNumModes=12   MinNumModes=1   EigenShift=0   EigenCutoff=0   EigenTol=1E-09   AutoShift=Yes
 
TABLE:  "CASE - STATIC 1 - LOAD ASSIGNMENTS"
   Case=DEAD   LoadType="Load pattern"   LoadName=DEAD   LoadSF=1
   Case=LL   LoadType="Load pattern"   LoadName=LL   LoadSF=1
 
TABLE:  "COMBINATION DEFINITIONS"
   ComboName=COMB1   ComboType="Linear Add"   AutoDesign=No   CaseName=DEAD   ScaleFactor=1   SteelDesign=None   ConcDesign=Strength   AlumDesign=None   ColdDesign=None
   ComboName=COMB2   ComboType="Linear Add"   AutoDesign=No   CaseName=DEAD   ScaleFactor=1   SteelDesign=None   ConcDesign=Strength   AlumDesign=None   ColdDesign=None
   ComboName=COMB2   CaseName=LL   ScaleFactor=1
   ComboName=BAO   ComboType=Envelope   AutoDesign=No   CaseName=COMB1   ScaleFactor=1   SteelDesign=None   ConcDesign=Strength   AlumDesign=None   ColdDesign=None
   ComboName=BAO   CaseName=COMB2   ScaleFactor=1
   ComboName=DCON1   ComboType="Linear Add"   AutoDesign=Yes   CaseName=DEAD   ScaleFactor=1.4   SteelDesign=None   ConcDesign=Strength   AlumDesign=None   ColdDesign=None   GUID=bb4fff9a-98b5-44d1-9fde-34d92700a8e9   Notes="Dead Only; Strength"
   ComboName=DCON2   ComboType="Linear Add"   AutoDesign=Yes   CaseName=DEAD   ScaleFactor=1.25   SteelDesign=None   ConcDesign=Strength   AlumDesign=None   ColdDesign=None   GUID=505bcda7-6fac-4dd0-b03e-c591d1ffc6ce   Notes="Dead + Live; Strength"
   ComboName=DCON2   CaseName=LL   ScaleFactor=1.5
 
TABLE:  "CONNECTIVITY - AREA"
   Area=314085   Joint1=918635   Joint2=918564   Joint3=918523   Joint4=918522   GUID=acef3715-9bf2-4621-aed8-4e686a47631a
   Area=314086   Joint1=918522   Joint2=918523   Joint3=918525   Joint4=918524   GUID=f9ec01d2-c160-4686-9672-b77da133c702
   Area=314087   Joint1=918524   Joint2=918525   Joint3=918527   Joint4=918526   GUID=5ae6affe-c7df-4e32-aac5-bd9ca6bb8327
   Area=314088   Joint1=918526   Joint2=918527   Joint3=918529   Joint4=918528   GUID=e68dfdfa-74ea-48da-a15e-85404dbde429
   Area=314089   Joint1=918528   Joint2=918529   Joint3=918531   Joint4=918530   GUID=ac4e72d3-4d2e-4435-8ddf-2598898dcf39
   Area=314090   Joint1=918530   Joint2=918531   Joint3=918533   Joint4=918532   GUID=bd88ea7c-2ab4-4c5c-840d-c2e5e79554dc
   Area=314091   Joint1=918532   Joint2=918533   Joint3=918535   Joint4=918534   GUID=4e75c22d-b09b-4c7c-b518-196db27fe19f
   Area=314092   Joint1=918534   Joint2=918535   Joint3=918568   Joint4=918636   GUID=8beb46fd-007c-433e-9511-2957cbd573b6
   Area=314093   Joint1=918564   Joint2=918565   Joint3=918536   Joint4=918523   GUID=ec1cf792-2a44-410c-8202-870401c14740
   Area=314094   Joint1=918523   Joint2=918536   Joint3=918537   Joint4=918525   GUID=019441d3-5a98-4e65-9cbb-89f5d43cc843
   Area=314095   Joint1=918525   Joint2=918537   Joint3=918538   Joint4=918527   GUID=e56010dc-934a-457d-acdc-66ed1570d4c0
   Area=314096   Joint1=918527   Joint2=918538   Joint3=918539   Joint4=918529   GUID=cce16bc1-6cea-4d15-aeb1-c8868079fa79
   Area=314097   Joint1=918529   Joint2=918539   Joint3=918540   Joint4=918531   GUID=ee5e1ee9-3756-48af-8d0d-b93d9396d10d
   Area=314098   Joint1=918531   Joint2=918540   Joint3=918541   Joint4=918533   GUID=c7baf5d4-f18a-487d-be62-450a83177465
   Area=314099   Joint1=918533   Joint2=918541   Joint3=918542   Joint4=918535   GUID=77a362d0-cc55-4941-a3b9-6552583b3715
   Area=314100   Joint1=918535   Joint2=918542   Joint3=918569   Joint4=918568   GUID=8815dd14-1c82-4b02-b3e3-1bc32167a8a1
   Area=314101   Joint1=918565   Joint2=918566   Joint3=918543   Joint4=918536   GUID=bd5e89c0-956f-49c2-895a-5d8ae021b5bc
   Area=314102   Joint1=918536   Joint2=918543   Joint3=918544   Joint4=918537   GUID=8d63328a-6298-46ce-b599-c909407cf0bb
   Area=314103   Joint1=918537   Joint2=918544   Joint3=918545   Joint4=918538   GUID=75c32bce-b1eb-47fd-b7e9-cce1714458c0
   Area=314104   Joint1=918538   Joint2=918545   Joint3=918546   Joint4=918539   GUID=91c49164-132a-4e39-9a37-d79746f1df8e
   Area=314105   Joint1=918539   Joint2=918546   Joint3=918547   Joint4=918540   GUID=1fa862fc-06bc-4a40-aad1-3243a269bedd
   Area=314106   Joint1=918540   Joint2=918547   Joint3=918548   Joint4=918541   GUID=64b5d4c8-4fbe-4987-9f12-3d484e86061d
   Area=314107   Joint1=918541   Joint2=918548   Joint3=918549   Joint4=918542   GUID=7c6226d5-e925-4df4-be7d-34a5348ddcf3
   Area=314108   Joint1=918542   Joint2=918549   Joint3=918570   Joint4=918569   GUID=8f999070-a51d-42b3-bad6-ef3429dd2c48
   Area=314109   Joint1=918566   Joint2=918567   Joint3=918550   Joint4=918543   GUID=b6b2ae58-a042-4dc5-8f5f-e26d64b0ddc6
   Area=314110   Joint1=918543   Joint2=918550   Joint3=918551   Joint4=918544   GUID=c53e1aa6-b110-47b7-8e3b-6b7ab47f8737
   Area=314111   Joint1=918544   Joint2=918551   Joint3=918552   Joint4=918545   GUID=60929269-ceb7-4c98-bc71-12aa74731e07
   Area=314112   Joint1=918545   Joint2=918552   Joint3=918553   Joint4=918546   GUID=4df0ff25-8bba-4630-b90c-e73b6359f8ca
   Area=314113   Joint1=918546   Joint2=918553   Joint3=918554   Joint4=918547   GUID=cd421ecd-6f23-466e-a0c9-bea3b8aa63c2
   Area=314114   Joint1=918547   Joint2=918554   Joint3=918555   Joint4=918548   GUID=3b980b01-61d9-4b0c-a4c3-5fdd71ba635c
   Area=314115   Joint1=918548   Joint2=918555   Joint3=918556   Joint4=918549   GUID=656b3cc3-99a1-4e25-819b-cd38a03450f8
   Area=314116   Joint1=918549   Joint2=918556   Joint3=918571   Joint4=918570   GUID=81c3d364-5494-4100-bb32-937ff1afcedc
   Area=314117   Joint1=918567   Joint2=918637   Joint3=918557   Joint4=918550   GUID=3977a2a5-fb35-44f8-a193-e04cf7f6addd
   Area=314118   Joint1=918550   Joint2=918557   Joint3=918558   Joint4=918551   GUID=11ff72a3-d53a-42b4-a55f-8d1e1a91a4b1
   Area=314119   Joint1=918551   Joint2=918558   Joint3=918559   Joint4=918552   GUID=5edc6a38-f022-4fa2-b5de-589dc87b86b8
   Area=314120   Joint1=918552   Joint2=918559   Joint3=918560   Joint4=918553   GUID=f317bd90-4156-4162-8bac-2e3f3755f52a
   Area=314121   Joint1=918553   Joint2=918560   Joint3=918561   Joint4=918554   GUID=9e9aae03-803a-41bd-b84d-37629eda0cd7
   Area=314122   Joint1=918554   Joint2=918561   Joint3=918562   Joint4=918555   GUID=7ab32be1-3868-4d0e-a0d2-638e2a70673d
   Area=314123   Joint1=918555   Joint2=918562   Joint3=918563   Joint4=918556   GUID=ff8120ba-c03b-4327-b391-59deb3cae1bd
   Area=314124   Joint1=918556   Joint2=918563   Joint3=918638   Joint4=918571   GUID=948e690f-c423-41c1-9a4b-6fdc6cb8d462
 
TABLE:  "CONNECTIVITY - FRAME"
   Frame=1050014   JointI=918522   JointJ=918523   IsCurved=No   GUID=e631d9a9-8073-4fb0-9ff7-d53d167b4c31
   Frame=1050015   JointI=918524   JointJ=918525   IsCurved=No   GUID=dd882ede-b890-4e3a-ada5-a0e0e97d200d
   Frame=1050016   JointI=918526   JointJ=918527   IsCurved=No   GUID=456cfc5f-c93e-425c-ac5d-0511c2d632e5
   Frame=1050017   JointI=918528   JointJ=918529   IsCurved=No   GUID=99cdc604-2f25-4a27-9626-01f03d64e376
   Frame=1050018   JointI=918530   JointJ=918531   IsCurved=No   GUID=102f8e47-84ee-4699-871e-c7af1ea57b0d
   Frame=1050019   JointI=918532   JointJ=918533   IsCurved=No   GUID=60b6f299-dc2f-42d5-b43e-4ba95c214bcf
   Frame=1050020   JointI=918534   JointJ=918535   IsCurved=No   GUID=2a957e6f-8b1f-43cc-9b45-70e3a8ea6ca9
   Frame=1050021   JointI=918523   JointJ=918536   IsCurved=No   GUID=d7fced6b-a328-435d-aa97-1bd27e3bd39c
   Frame=1050022   JointI=918525   JointJ=918537   IsCurved=No   GUID=c8cc0dcc-a1e4-4e70-bbcd-1d52261bd24c
   Frame=1050023   JointI=918527   JointJ=918538   IsCurved=No   GUID=7d5a11fc-e785-4be0-b4d4-903ea9fb3d21
   Frame=1050024   JointI=918529   JointJ=918539   IsCurved=No   GUID=0d1e2de7-f5b6-4e85-bed9-aec6a7004dab
   Frame=1050025   JointI=918531   JointJ=918540   IsCurved=No   GUID=ed2d756e-1003-45fa-85d8-7662aaa7b755
   Frame=1050026   JointI=918533   JointJ=918541   IsCurved=No   GUID=ad65842b-0b4a-4de1-ae0d-ca264d4d0a14
   Frame=1050027   JointI=918535   JointJ=918542   IsCurved=No   GUID=0a337298-47e3-412a-8ecd-6dd65783e4a3
   Frame=1050028   JointI=918536   JointJ=918543   IsCurved=No   GUID=05fcd1b9-02e3-4fca-9e95-20be65386d1e
   Frame=1050029   JointI=918537   JointJ=918544   IsCurved=No   GUID=74ca49da-e211-4912-94ad-1147ee734e15
   Frame=1050030   JointI=918538   JointJ=918545   IsCurved=No   GUID=43c0eb0a-3785-43f6-a426-2ed9ec903ec6
   Frame=1050031   JointI=918539   JointJ=918546   IsCurved=No   GUID=7b6b578b-e941-43fa-98f5-7c27d14196f1
   Frame=1050032   JointI=918540   JointJ=918547   IsCurved=No   GUID=a4dc184f-8536-4f75-9b67-ffc4c9260835
   Frame=1050033   JointI=918541   JointJ=918548   IsCurved=No   GUID=c8f04b36-4741-4a82-91ae-add404cbaf84
   Frame=1050034   JointI=918542   JointJ=918549   IsCurved=No   GUID=19073f81-9988-4449-9e22-52677189dc5f
   Frame=1050035   JointI=918543   JointJ=918550   IsCurved=No   GUID=5ae8cfdd-e3ac-45a4-98e6-00dd985992dd
   Frame=1050036   JointI=918544   JointJ=918551   IsCurved=No   GUID=b760ba9c-b723-48e4-b538-c176913b9f45
   Frame=1050037   JointI=918545   JointJ=918552   IsCurved=No   GUID=94b1b20a-4d53-4c5a-a9f7-77d9cbd7fa2c
   Frame=1050038   JointI=918546   JointJ=918553   IsCurved=No   GUID=abb88606-78ef-4ffe-95fa-5bb56700274e
   Frame=1050039   JointI=918547   JointJ=918554   IsCurved=No   GUID=28058882-33ea-4814-9465-235d7797510b
   Frame=1050040   JointI=918548   JointJ=918555   IsCurved=No   GUID=72885a8e-ad27-48a2-ace6-ee1c23f8bd3c
   Frame=1050041   JointI=918549   JointJ=918556   IsCurved=No   GUID=dd22ed78-f599-45d5-ad96-d7154e20b68b
   Frame=1050042   JointI=918550   JointJ=918557   IsCurved=No   GUID=23c7a55a-fedc-4042-8650-929b03b496f1
   Frame=1050043   JointI=918551   JointJ=918558   IsCurved=No   GUID=8efeba1e-2533-41d2-aee8-127de49fa6cb
   Frame=1050044   JointI=918552   JointJ=918559   IsCurved=No   GUID=1457591e-8ac1-4dae-85ce-f7cbde5bb850
   Frame=1050045   JointI=918553   JointJ=918560   IsCurved=No   GUID=37748a89-98e3-453c-945d-2069155cb635
   Frame=1050046   JointI=918554   JointJ=918561   IsCurved=No   GUID=9ceead51-d2fd-4a39-8564-a01a68cff6f8
   Frame=1050047   JointI=918555   JointJ=918562   IsCurved=No   GUID=09185ec1-62ef-4ed3-aa93-a2bf5d4d8d02
   Frame=1050048   JointI=918556   JointJ=918563   IsCurved=No   GUID=b13128dc-6ec1-4e76-b8d1-31e3a75d39de
   Frame=1050049   JointI=918564   JointJ=918523   IsCurved=No   GUID=8ae16d13-e2e1-47f1-8e20-de3a050cdb65
   Frame=1050050   JointI=918565   JointJ=918536   IsCurved=No   GUID=a69225ac-69d2-4352-9460-05b9297ec87d
   Frame=1050051   JointI=918566   JointJ=918543   IsCurved=No   GUID=f3bf2266-1a61-4394-b6ce-647c43d326c2
   Frame=1050052   JointI=918567   JointJ=918550   IsCurved=No   GUID=4558fc3d-a964-46bb-ba58-f518024251b6
   Frame=1050053   JointI=918523   JointJ=918525   IsCurved=No   GUID=33dc512f-e814-48d2-b7fc-1b57912fce41
   Frame=1050054   JointI=918536   JointJ=918537   IsCurved=No   GUID=90a81918-0e82-4615-bbdd-3b98178a08c2
   Frame=1050055   JointI=918543   JointJ=918544   IsCurved=No   GUID=c9d67001-8e5c-47b4-a138-a33b298ffa73
   Frame=1050056   JointI=918550   JointJ=918551   IsCurved=No   GUID=05c74175-d317-4f6b-8238-c8a88bdeaaf1
   Frame=1050057   JointI=918525   JointJ=918527   IsCurved=No   GUID=8f6a8fe2-d64e-4035-9de5-2630d47ba573
   Frame=1050058   JointI=918537   JointJ=918538   IsCurved=No   GUID=1beb88b2-6977-4aa7-af60-0d3655010165
   Frame=1050059   JointI=918544   JointJ=918545   IsCurved=No   GUID=44547f87-4a55-43fb-903d-58b18490889e
   Frame=1050060   JointI=918551   JointJ=918552   IsCurved=No   GUID=c9e2fdef-0326-48a5-8e94-e66278ffed5a
   Frame=1050061   JointI=918527   JointJ=918529   IsCurved=No   GUID=f740fc2e-4e90-4e08-9674-18560a71883a
   Frame=1050062   JointI=918538   JointJ=918539   IsCurved=No   GUID=089b3266-b11f-47ae-9676-7081ecc3c491
   Frame=1050063   JointI=918545   JointJ=918546   IsCurved=No   GUID=1034de75-4d97-4c62-85b1-43dbb01e1828
   Frame=1050064   JointI=918552   JointJ=918553   IsCurved=No   GUID=2bbbbfa8-84a1-48fb-b303-7f553d9772ba
   Frame=1050065   JointI=918529   JointJ=918531   IsCurved=No   GUID=313eb92b-7fa5-40bf-af1e-62833d65a839
   Frame=1050066   JointI=918539   JointJ=918540   IsCurved=No   GUID=e1916af2-ba64-418f-b02d-9aa267437c5a
   Frame=1050067   JointI=918546   JointJ=918547   IsCurved=No   GUID=d1b39bf6-a9f8-4ec7-ae58-86d1d9178e12
   Frame=1050068   JointI=918553   JointJ=918554   IsCurved=No   GUID=61425e65-be0e-47e8-bf72-23913def0a72
   Frame=1050069   JointI=918531   JointJ=918533   IsCurved=No   GUID=2dccefae-f93d-4e8b-bbc0-597016d94299
   Frame=1050070   JointI=918540   JointJ=918541   IsCurved=No   GUID=91440992-9d70-411e-93c9-d87f974a69c7
   Frame=1050071   JointI=918547   JointJ=918548   IsCurved=No   GUID=571f57c2-baa7-44a2-9824-646af00448c0
   Frame=1050072   JointI=918554   JointJ=918555   IsCurved=No   GUID=2a1a59f2-b47a-41be-89e5-5ec8849e6c78
   Frame=1050073   JointI=918533   JointJ=918535   IsCurved=No   GUID=185f9fca-dd00-4b37-a6e3-08634d492c52
   Frame=1050074   JointI=918541   JointJ=918542   IsCurved=No   GUID=8eb4ece8-cffc-4bad-a3a7-6e359b819c78
   Frame=1050075   JointI=918548   JointJ=918549   IsCurved=No   GUID=543251f5-eb6e-452f-91ba-26a471c7f18f
   Frame=1050076   JointI=918555   JointJ=918556   IsCurved=No   GUID=aeb0aff2-fa5c-43d8-b7da-a45dd4bf094d
   Frame=1050077   JointI=918535   JointJ=918568   IsCurved=No   GUID=2cffa770-10fa-4237-93ca-9d52599ecd45
   Frame=1050078   JointI=918542   JointJ=918569   IsCurved=No   GUID=85d261c0-ef8e-4405-9651-249c090c92a1
   Frame=1050079   JointI=918549   JointJ=918570   IsCurved=No   GUID=1eac7566-254e-44b0-834a-5cdadd3b933d
   Frame=1050080   JointI=918556   JointJ=918571   IsCurved=No   GUID=9c5a521a-dccc-40bd-8de9-6cb0acd1c8a6
   Frame=1050081   JointI=918523   JointJ=918572   IsCurved=No   GUID=1b73aedb-4462-483d-95ba-e37d5aa180c4
   Frame=1050082   JointI=918572   JointJ=918573   IsCurved=No   GUID=aae510a1-8d51-40ce-a70c-246f9d2c5b4c
   Frame=1050083   JointI=918573   JointJ=918574   IsCurved=No   GUID=63f7a797-f206-4ffc-a66b-ebb4d6fd89dc
   Frame=1050084   JointI=918525   JointJ=918575   IsCurved=No   GUID=32d1bd16-c9f3-45e0-9595-96af1c26fcda
   Frame=1050085   JointI=918575   JointJ=918576   IsCurved=No   GUID=87550498-cc4a-4082-a5e4-1a0c2dd58c38
   Frame=1050086   JointI=918576   JointJ=918577   IsCurved=No   GUID=0e91db5f-0b42-42d9-afdb-27994ef6f148
   Frame=1050087   JointI=918527   JointJ=918578   IsCurved=No   GUID=3709d2ef-37d7-4b9d-a730-83656fa8048c
   Frame=1050088   JointI=918578   JointJ=918579   IsCurved=No   GUID=ab4508b5-7b53-461b-a88e-a9d42fb63576
   Frame=1050089   JointI=918579   JointJ=918580   IsCurved=No   GUID=69bdb545-6c3b-4cbf-9ada-a6057e65a83c
   Frame=1050090   JointI=918529   JointJ=918581   IsCurved=No   GUID=7d1259f5-b3c1-4b2a-815e-68cdaa2cb012
   Frame=1050091   JointI=918581   JointJ=918582   IsCurved=No   GUID=4ca0225b-0dba-4a84-bcb2-e20e62dd2192
   Frame=1050092   JointI=918582   JointJ=918583   IsCurved=No   GUID=826a551f-4ac5-46c6-a96e-a7abf4c36c23
   Frame=1050093   JointI=918531   JointJ=918584   IsCurved=No   GUID=e424b5e2-a92e-4533-83a9-14dc60e6fd01
   Frame=1050094   JointI=918584   JointJ=918585   IsCurved=No   GUID=a95cb997-d92d-408c-a287-b95bf9554f30
   Frame=1050095   JointI=918585   JointJ=918586   IsCurved=No   GUID=3cfbd5b4-b978-45f3-857a-741ec2d45826
   Frame=1050096   JointI=918533   JointJ=918587   IsCurved=No   GUID=3c4f0028-0b8e-4a26-b398-f142002a7291
   Frame=1050097   JointI=918587   JointJ=918588   IsCurved=No   GUID=f5cbbd48-b632-4b45-8366-59004baffad9
   Frame=1050098   JointI=918588   JointJ=918589   IsCurved=No   GUID=aaab8c69-2253-4e3b-b9ff-f1b7c13b53bb
   Frame=1050099   JointI=918535   JointJ=918590   IsCurved=No   GUID=a68ea186-931a-4bb4-9653-c165cd44f853
   Frame=1050100   JointI=918590   JointJ=918591   IsCurved=No   GUID=57182fbf-f5c8-4615-8595-82076234bb2c
   Frame=1050101   JointI=918591   JointJ=918592   IsCurved=No   GUID=20032f40-b497-4d95-95b8-8b47cf89ed15
   Frame=1050102   JointI=918536   JointJ=918593   IsCurved=No   GUID=c608ec51-c271-4d8c-80ad-9b12dbbcc6da
   Frame=1050103   JointI=918593   JointJ=918594   IsCurved=No   GUID=2122df84-5290-4935-9401-2ac452c25013
   Frame=1050104   JointI=918537   JointJ=918595   IsCurved=No   GUID=647a1f5c-816d-4d8d-ba8c-554a1afc8c79
   Frame=1050105   JointI=918595   JointJ=918596   IsCurved=No   GUID=954af8bc-ea3c-4054-bba8-7159c34b54fe
   Frame=1050106   JointI=918538   JointJ=918597   IsCurved=No   GUID=8e725e7d-54a5-4719-ad52-1cd43f0126d5
   Frame=1050107   JointI=918597   JointJ=918598   IsCurved=No   GUID=f65799f3-566f-444b-8c4d-43e59f741405
   Frame=1050108   JointI=918539   JointJ=918599   IsCurved=No   GUID=c2c469c6-d6d4-46e4-94f3-184dd26b0f6d
   Frame=1050109   JointI=918599   JointJ=918600   IsCurved=No   GUID=77b41d0e-c116-4485-ba36-15c5638e42f7
   Frame=1050110   JointI=918540   JointJ=918601   IsCurved=No   GUID=bebff5d6-96f8-4fae-aa47-4a7c1f67f5bc
   Frame=1050111   JointI=918601   JointJ=918602   IsCurved=No   GUID=9ce6c649-a855-4947-8b5c-4d2d35aee48c
   Frame=1050112   JointI=918541   JointJ=918603   IsCurved=No   GUID=2eea8941-da4c-4022-b255-2c0355607db5
   Frame=1050113   JointI=918603   JointJ=918604   IsCurved=No   GUID=120c5b08-a81f-43e3-8a19-0c1dd87ec532
   Frame=1050114   JointI=918542   JointJ=918605   IsCurved=No   GUID=4cc0f0e2-b8f5-40fd-8fec-f14e986d6457
   Frame=1050115   JointI=918605   JointJ=918606   IsCurved=No   GUID=3c2fcbb1-c8f6-491e-b4ab-f323732aa82a
   Frame=1050116   JointI=918543   JointJ=918607   IsCurved=No   GUID=65b27855-6b3b-458d-84a1-0d303ef4ed5e
   Frame=1050117   JointI=918607   JointJ=918608   IsCurved=No   GUID=64f4fc6c-df34-4922-ae9f-cbe30609a4c1
   Frame=1050118   JointI=918544   JointJ=918609   IsCurved=No   GUID=0a880c05-098a-495b-9d5c-5d22fc8cd106
   Frame=1050119   JointI=918609   JointJ=918610   IsCurved=No   GUID=7ccd03d9-2e48-4542-826b-1255adb57f1a
   Frame=1050120   JointI=918545   JointJ=918611   IsCurved=No   GUID=13f4becd-b3d5-499c-b729-75b30ccbcbc2
   Frame=1050121   JointI=918611   JointJ=918612   IsCurved=No   GUID=cc64df4f-40a6-435f-89e8-ab93637c9558
   Frame=1050122   JointI=918546   JointJ=918613   IsCurved=No   GUID=7516f456-4235-48c6-968c-8eff1cb72500
   Frame=1050123   JointI=918613   JointJ=918614   IsCurved=No   GUID=f7810840-c914-468b-8511-7b496b70004f
   Frame=1050124   JointI=918547   JointJ=918615   IsCurved=No   GUID=3f5db104-c9cd-4622-8926-a1381cab2fee
   Frame=1050125   JointI=918615   JointJ=918616   IsCurved=No   GUID=f3da14b2-4a4e-49f8-bd1b-39f349541390
   Frame=1050126   JointI=918548   JointJ=918617   IsCurved=No   GUID=d32a9b73-8e88-4dc5-8bd4-62f09ef55600
   Frame=1050127   JointI=918617   JointJ=918618   IsCurved=No   GUID=ef16dcfc-9edb-4d57-9ef9-cff49f451a93
   Frame=1050128   JointI=918549   JointJ=918619   IsCurved=No   GUID=b074fa43-5b1d-4bc2-b902-8fe8db905dd1
   Frame=1050129   JointI=918619   JointJ=918620   IsCurved=No   GUID=d50220ac-35f7-49cb-a34b-4ffdbb67a74c
   Frame=1050130   JointI=918550   JointJ=918621   IsCurved=No   GUID=8fcba0e1-1fd1-4424-8125-a1eb31c0d231
   Frame=1050131   JointI=918621   JointJ=918622   IsCurved=No   GUID=ad7bd674-b4da-4c2f-8c40-2894f69cf485
   Frame=1050132   JointI=918551   JointJ=918623   IsCurved=No   GUID=03eaef2f-2f9b-4e98-98ec-da441f7365f8
   Frame=1050133   JointI=918623   JointJ=918624   IsCurved=No   GUID=16eae03b-349c-4c19-b21e-8c1b59d67ea8
   Frame=1050134   JointI=918552   JointJ=918625   IsCurved=No   GUID=577cc3b5-12b2-4463-9c42-84dde88844e5
   Frame=1050135   JointI=918625   JointJ=918626   IsCurved=No   GUID=12dbfe38-04af-4830-96ba-60398c1cb7d4
   Frame=1050136   JointI=918553   JointJ=918627   IsCurved=No   GUID=b0ed3c86-0cdf-4e9a-b01b-63e76d72b362
   Frame=1050137   JointI=918627   JointJ=918628   IsCurved=No   GUID=ba4d0e7a-28b8-43d5-9c4e-58e2b69c0cd2
   Frame=1050138   JointI=918554   JointJ=918629   IsCurved=No   GUID=ae9b6084-b002-4770-acef-3576b1911106
   Frame=1050139   JointI=918629   JointJ=918630   IsCurved=No   GUID=a436b3bd-b3ef-4bd3-9b03-f9895dea5029
   Frame=1050140   JointI=918555   JointJ=918631   IsCurved=No   GUID=8d992996-698a-4ccd-bf9a-a120c4324ae5
   Frame=1050141   JointI=918631   JointJ=918632   IsCurved=No   GUID=f42655c9-da3e-4a8c-976e-b87a32b3c4a4
   Frame=1050142   JointI=918556   JointJ=918633   IsCurved=No   GUID=d4454301-e054-46f6-8b4c-8766e1f18993
   Frame=1050143   JointI=918633   JointJ=918634   IsCurved=No   GUID=3eb9155a-31df-47cf-8dd5-7a0135c3aa87
   Frame=1050144   JointI=918572   JointJ=918575   IsCurved=No   GUID=2914146e-daab-49dc-b28b-68fea78cdc50
   Frame=1050145   JointI=918575   JointJ=918578   IsCurved=No   GUID=38a28dc7-9f8e-4a8d-973b-2bdaf8b0ad96
   Frame=1050146   JointI=918578   JointJ=918581   IsCurved=No   GUID=ef651605-8d41-49a0-88fd-63f78b3d0156
   Frame=1050147   JointI=918581   JointJ=918584   IsCurved=No   GUID=864a020c-edd5-428b-913f-38772a8452cf
   Frame=1050148   JointI=918584   JointJ=918587   IsCurved=No   GUID=40348ec0-436e-4a35-8824-21841b1c8dd4
   Frame=1050149   JointI=918587   JointJ=918590   IsCurved=No   GUID=1be9220d-06d5-4f31-b5c8-a35e4151d8d2
 
TABLE:  "COORDINATE SYSTEMS"
   Name=GLOBAL   Type=Cartesian   X=0   Y=0   Z=0   AboutZ=0   AboutY=0   AboutX=0
 
TABLE:  "DATABASE DOCUMENTATION"
 
TABLE:  "DATABASE FORMAT TYPES"
   UnitsCurr=Yes   OverrideE=No
 
TABLE:  "FRAME AUTO MESH ASSIGNMENTS"
   Frame=1050014   AutoMesh=Yes   AtJoints=Yes   AtFrames=No   NumSegments=0   MaxLength=0   MaxDegrees=0
   Frame=1050015   AutoMesh=Yes   AtJoints=Yes   AtFrames=No   NumSegments=0   MaxLength=0   MaxDegrees=0
   Frame=1050016   AutoMesh=Yes   AtJoints=Yes   AtFrames=No   NumSegments=0   MaxLength=0   MaxDegrees=0
   Frame=1050017   AutoMesh=Yes   AtJoints=Yes   AtFrames=No   NumSegments=0   MaxLength=0   MaxDegrees=0
   Frame=1050018   AutoMesh=Yes   AtJoints=Yes   AtFrames=No   NumSegments=0   MaxLength=0   MaxDegrees=0
   Frame=1050019   AutoMesh=Yes   AtJoints=Yes   AtFrames=No   NumSegments=0   MaxLength=0   MaxDegrees=0
   Frame=1050020   AutoMesh=Yes   AtJoints=Yes   AtFrames=No   NumSegments=0   MaxLength=0   MaxDegrees=0
   Frame=1050021   AutoMesh=Yes   AtJoints=Yes   AtFrames=No   NumSegments=0   MaxLength=0   MaxDegrees=0
   Frame=1050022   AutoMesh=Yes   AtJoints=Yes   AtFrames=No   NumSegments=0   MaxLength=0   MaxDegrees=0
   Frame=1050023   AutoMesh=Yes   AtJoints=Yes   AtFrames=No   NumSegments=0   MaxLength=0   MaxDegrees=0
   Frame=1050024   AutoMesh=Yes   AtJoints=Yes   AtFrames=No   NumSegments=0   MaxLength=0   MaxDegrees=0
   Frame=1050025   AutoMesh=Yes   AtJoints=Yes   AtFrames=No   NumSegments=0   MaxLength=0   MaxDegrees=0
   Frame=1050026   AutoMesh=Yes   AtJoints=Yes   AtFrames=No   NumSegments=0   MaxLength=0   MaxDegrees=0
   Frame=1050027   AutoMesh=Yes   AtJoints=Yes   AtFrames=No   NumSegments=0   MaxLength=0   MaxDegrees=0
   Frame=1050028   AutoMesh=Yes   AtJoints=Yes   AtFrames=No   NumSegments=0   MaxLength=0   MaxDegrees=0
   Frame=1050029   AutoMesh=Yes   AtJoints=Yes   AtFrames=No   NumSegments=0   MaxLength=0   MaxDegrees=0
   Frame=1050030   AutoMesh=Yes   AtJoints=Yes   AtFrames=No   NumSegments=0   MaxLength=0   MaxDegrees=0
   Frame=1050031   AutoMesh=Yes   AtJoints=Yes   AtFrames=No   NumSegments=0   MaxLength=0   MaxDegrees=0
   Frame=1050032   AutoMesh=Yes   AtJoints=Yes   AtFrames=No   NumSegments=0   MaxLength=0   MaxDegrees=0
   Frame=1050033   AutoMesh=Yes   AtJoints=Yes   AtFrames=No   NumSegments=0   MaxLength=0   MaxDegrees=0
# ... 116 like lines cut
 
TABLE:  "FRAME DESIGN PROCEDURES"
   Frame=1050014   DesignProc="From Material"
   Frame=1050015   DesignProc="From Material"
   Frame=1050016   DesignProc="From Material"
   Frame=1050017   DesignProc="From Material"
   Frame=1050018   DesignProc="From Material"
   Frame=1050019   DesignProc="From Material"
   Frame=1050020   DesignProc="From Material"
   Frame=1050021   DesignProc="From Material"
   Frame=1050022   DesignProc="From Material"
   Frame=1050023   DesignProc="From Material"
   Frame=1050024   DesignProc="From Material"
   Frame=1050025   DesignProc="From Material"
   Frame=1050026   DesignProc="From Material"
   Frame=1050027   DesignProc="From Material"
   Frame=1050028   DesignProc="From Material"
   Frame=1050029   DesignProc="From Material"
   Frame=1050030   DesignProc="From Material"
   Frame=1050031   DesignProc="From Material"
   Frame=1050032   DesignProc="From Material"
   Frame=1050033   DesignProc="From Material"
# ... 48 like lines cut
   Frame=1050082   DesignProc="No Design"
   Frame=1050083   DesignProc="No Design"
   Frame=1050084   DesignProc="From Material"
   Frame=1050085   DesignProc="No Design"
   Frame=1050086   DesignProc="No Design"
   Frame=1050087   DesignProc="From Material"
   Frame=1050088   DesignProc="No Design"
   Frame=1050089   DesignProc="No Design"
   Frame=1050090   DesignProc="From Material"
   Frame=1050091   DesignProc="No Design"
   Frame=1050092   DesignProc="No Design"
   Frame=1050093   DesignProc="From Material"
   Frame=1050094   DesignProc="No Design"
   Frame=1050095   DesignProc="No Design"
   Frame=1050096   DesignProc="From Material"
   Frame=1050097   DesignProc="No Design"
   Frame=1050098   DesignProc="No Design"
   Frame=1050099   DesignProc="From Material"
   Frame=1050100   DesignProc="No Design"
   Frame=1050101   DesignProc="No Design"
   Frame=1050102   DesignProc="No Design"
   Frame=1050103   DesignProc="No Design"
   Frame=1050104   DesignProc="No Design"
   Frame=1050105   DesignProc="No Design"
   Frame=1050106   DesignProc="No Design"
   Frame=1050107   DesignProc="No Design"
   Frame=1050108   DesignProc="No Design"
   Frame=1050109   DesignProc="No Design"
   Frame=1050110   DesignProc="No Design"
   Frame=1050111   DesignProc="No Design"
   Frame=1050112   DesignProc="No Design"
   Frame=1050113   DesignProc="No Design"
   Frame=1050114   DesignProc="No Design"
   Frame=1050115   DesignProc="No Design"
   Frame=1050116   DesignProc="No Design"
   Frame=1050117   DesignProc="No Design"
   Frame=1050118   DesignProc="No Design"
   Frame=1050119   DesignProc="No Design"
# ... 24 like lines cut
   Frame=1050144   DesignProc="From Material"
   Frame=1050145   DesignProc="From Material"
   Frame=1050146   DesignProc="From Material"
   Frame=1050147   DesignProc="From Material"
   Frame=1050148   DesignProc="From Material"
   Frame=1050149   DesignProc="From Material"
 
TABLE:  "FRAME LOAD TRANSFER OPTIONS"
   Frame=1050014   Transfer=Yes
   Frame=1050015   Transfer=Yes
   Frame=1050016   Transfer=Yes
   Frame=1050017   Transfer=Yes
   Frame=1050018   Transfer=Yes
   Frame=1050019   Transfer=Yes
   Frame=1050020   Transfer=Yes
   Frame=1050021   Transfer=Yes
   Frame=1050022   Transfer=Yes
   Frame=1050023   Transfer=Yes
   Frame=1050024   Transfer=Yes
   Frame=1050025   Transfer=Yes
   Frame=1050026   Transfer=Yes
   Frame=1050027   Transfer=Yes
   Frame=1050028   Transfer=Yes
   Frame=1050029   Transfer=Yes
   Frame=1050030   Transfer=Yes
   Frame=1050031   Transfer=Yes
   Frame=1050032   Transfer=Yes
   Frame=1050033   Transfer=Yes
# ... 116 like lines cut
 
TABLE:  "FRAME LOCAL AXES ASSIGNMENTS 1 - TYPICAL"
   Frame=1050081   Angle=90
   Frame=1050084   Angle=90
   Frame=1050087   Angle=90
   Frame=1050090   Angle=90
   Frame=1050093   Angle=90
   Frame=1050096   Angle=90
   Frame=1050099   Angle=90
 
TABLE:  "FRAME OUTPUT STATION ASSIGNMENTS"
   Frame=1050014   StationType=MaxStaSpcg   MaxStaSpcg=0.5   AddAtElmInt=Yes   AddAtPtLoad=Yes
   Frame=1050015   StationType=MaxStaSpcg   MaxStaSpcg=0.5   AddAtElmInt=Yes   AddAtPtLoad=Yes
   Frame=1050016   StationType=MaxStaSpcg   MaxStaSpcg=0.5   AddAtElmInt=Yes   AddAtPtLoad=Yes
   Frame=1050017   StationType=MaxStaSpcg   MaxStaSpcg=0.5   AddAtElmInt=Yes   AddAtPtLoad=Yes
   Frame=1050018   StationType=MaxStaSpcg   MaxStaSpcg=0.5   AddAtElmInt=Yes   AddAtPtLoad=Yes
   Frame=1050019   StationType=MaxStaSpcg   MaxStaSpcg=0.5   AddAtElmInt=Yes   AddAtPtLoad=Yes
   Frame=1050020   StationType=MaxStaSpcg   MaxStaSpcg=0.5   AddAtElmInt=Yes   AddAtPtLoad=Yes
   Frame=1050021   StationType=MaxStaSpcg   MaxStaSpcg=0.5   AddAtElmInt=Yes   AddAtPtLoad=Yes
   Frame=1050022   StationType=MaxStaSpcg   MaxStaSpcg=0.5   AddAtElmInt=Yes   AddAtPtLoad=Yes
   Frame=1050023   StationType=MaxStaSpcg   MaxStaSpcg=0.5   AddAtElmInt=Yes   AddAtPtLoad=Yes
   Frame=1050024   StationType=MaxStaSpcg   MaxStaSpcg=0.5   AddAtElmInt=Yes   AddAtPtLoad=Yes
   Frame=1050025   StationType=MaxStaSpcg   MaxStaSpcg=0.5   AddAtElmInt=Yes   AddAtPtLoad=Yes
   Frame=1050026   StationType=MaxStaSpcg   MaxStaSpcg=0.5   AddAtElmInt=Yes   AddAtPtLoad=Yes
   Frame=1050027   StationType=MaxStaSpcg   MaxStaSpcg=0.5   AddAtElmInt=Yes   AddAtPtLoad=Yes
   Frame=1050028   StationType=MaxStaSpcg   MaxStaSpcg=0.5   AddAtElmInt=Yes   AddAtPtLoad=Yes
   Frame=1050029   StationType=MaxStaSpcg   MaxStaSpcg=0.5   AddAtElmInt=Yes   AddAtPtLoad=Yes
   Frame=1050030   StationType=MaxStaSpcg   MaxStaSpcg=0.5   AddAtElmInt=Yes   AddAtPtLoad=Yes
   Frame=1050031   StationType=MaxStaSpcg   MaxStaSpcg=0.5   AddAtElmInt=Yes   AddAtPtLoad=Yes
   Frame=1050032   StationType=MaxStaSpcg   MaxStaSpcg=0.5   AddAtElmInt=Yes   AddAtPtLoad=Yes
   Frame=1050033   StationType=MaxStaSpcg   MaxStaSpcg=0.5   AddAtElmInt=Yes   AddAtPtLoad=Yes
# ... 47 like lines cut
   Frame=1050081   StationType=MinNumSta   MinNumSta=3   AddAtElmInt=Yes   AddAtPtLoad=Yes
   Frame=1050082   StationType=MinNumSta   MinNumSta=3   AddAtElmInt=Yes   AddAtPtLoad=Yes
   Frame=1050083   StationType=MinNumSta   MinNumSta=3   AddAtElmInt=Yes   AddAtPtLoad=Yes
   Frame=1050084   StationType=MinNumSta   MinNumSta=3   AddAtElmInt=Yes   AddAtPtLoad=Yes
   Frame=1050085   StationType=MinNumSta   MinNumSta=3   AddAtElmInt=Yes   AddAtPtLoad=Yes
   Frame=1050086   StationType=MinNumSta   MinNumSta=3   AddAtElmInt=Yes   AddAtPtLoad=Yes
   Frame=1050087   StationType=MinNumSta   MinNumSta=3   AddAtElmInt=Yes   AddAtPtLoad=Yes
   Frame=1050088   StationType=MinNumSta   MinNumSta=3   AddAtElmInt=Yes   AddAtPtLoad=Yes
   Frame=1050089   StationType=MinNumSta   MinNumSta=3   AddAtElmInt=Yes   AddAtPtLoad=Yes
   Frame=1050090   StationType=MinNumSta   MinNumSta=3   AddAtElmInt=Yes   AddAtPtLoad=Yes
   Frame=1050091   StationType=MinNumSta   MinNumSta=3   AddAtElmInt=Yes   AddAtPtLoad=Yes
   Frame=1050092   StationType=MinNumSta   MinNumSta=3   AddAtElmInt=Yes   AddAtPtLoad=Yes
   Frame=1050093   StationType=MinNumSta   MinNumSta=3   AddAtElmInt=Yes   AddAtPtLoad=Yes
   Frame=1050094   StationType=MinNumSta   MinNumSta=3   AddAtElmInt=Yes   AddAtPtLoad=Yes
   Frame=1050095   StationType=MinNumSta   MinNumSta=3   AddAtElmInt=Yes   AddAtPtLoad=Yes
   Frame=1050096   StationType=MinNumSta   MinNumSta=3   AddAtElmInt=Yes   AddAtPtLoad=Yes
   Frame=1050097   StationType=MinNumSta   MinNumSta=3   AddAtElmInt=Yes   AddAtPtLoad=Yes
   Frame=1050098   StationType=MinNumSta   MinNumSta=3   AddAtElmInt=Yes   AddAtPtLoad=Yes
   Frame=1050099   StationType=MinNumSta   MinNumSta=3   AddAtElmInt=Yes   AddAtPtLoad=Yes
   Frame=1050100   StationType=MinNumSta   MinNumSta=3   AddAtElmInt=Yes   AddAtPtLoad=Yes
# ... 43 like lines cut
   Frame=1050144   StationType=MaxStaSpcg   MaxStaSpcg=0.5   AddAtElmInt=Yes   AddAtPtLoad=Yes
   Frame=1050145   StationType=MaxStaSpcg   MaxStaSpcg=0.5   AddAtElmInt=Yes   AddAtPtLoad=Yes
   Frame=1050146   StationType=MaxStaSpcg   MaxStaSpcg=0.5   AddAtElmInt=Yes   AddAtPtLoad=Yes
   Frame=1050147   StationType=MaxStaSpcg   MaxStaSpcg=0.5   AddAtElmInt=Yes   AddAtPtLoad=Yes
   Frame=1050148   StationType=MaxStaSpcg   MaxStaSpcg=0.5   AddAtElmInt=Yes   AddAtPtLoad=Yes
   Frame=1050149   StationType=MaxStaSpcg   MaxStaSpcg=0.5   AddAtElmInt=Yes   AddAtPtLoad=Yes
 
TABLE:  "FRAME SECTION ASSIGNMENTS"
   Frame=1050014   AutoSelect=N.A.   AnalSect=TB   MatProp=Default
   Frame=1050015   AutoSelect=N.A.   AnalSect=TB   MatProp=Default
   Frame=1050016   AutoSelect=N.A.   AnalSect=TB   MatProp=Default
   Frame=1050017   AutoSelect=N.A.   AnalSect=TB   MatProp=Default
   Frame=1050018   AutoSelect=N.A.   AnalSect=TB   MatProp=Default
   Frame=1050019   AutoSelect=N.A.   AnalSect=TB   MatProp=Default
   Frame=1050020   AutoSelect=N.A.   AnalSect=TB   MatProp=Default
   Frame=1050021   AutoSelect=N.A.   AnalSect=TB   MatProp=Default
   Frame=1050022   AutoSelect=N.A.   AnalSect=TB   MatProp=Default
   Frame=1050023   AutoSelect=N.A.   AnalSect=TB   MatProp=Default
   Frame=1050024   AutoSelect=N.A.   AnalSect=TB   MatProp=Default
   Frame=1050025   AutoSelect=N.A.   AnalSect=TB   MatProp=Default
   Frame=1050026   AutoSelect=N.A.   AnalSect=TB   MatProp=Default
   Frame=1050027   AutoSelect=N.A.   AnalSect=TB   MatProp=Default
   Frame=1050028   AutoSelect=N.A.   AnalSect=TB   MatProp=Default
   Frame=1050029   AutoSelect=N.A.   AnalSect=TB   MatProp=Default
   Frame=1050030   AutoSelect=N.A.   AnalSect=TB   MatProp=Default
   Frame=1050031   AutoSelect=N.A.   AnalSect=TB   MatProp=Default
   Frame=1050032   AutoSelect=N.A.   AnalSect=TB   MatProp=Default
   Frame=1050033   AutoSelect=N.A.   AnalSect=TB   MatProp=Default
# ... 15 like lines cut
   Frame=1050049   AutoSelect=N.A.   AnalSect=LB   MatProp=Default
   Frame=1050050   AutoSelect=N.A.   AnalSect=LB   MatProp=Default
   Frame=1050051   AutoSelect=N.A.   AnalSect=LB   MatProp=Default
   Frame=1050052   AutoSelect=N.A.   AnalSect=LB   MatProp=Default
   Frame=1050053   AutoSelect=N.A.   AnalSect=LB   MatProp=Default
   Frame=1050054   AutoSelect=N.A.   AnalSect=LB   MatProp=Default
   Frame=1050055   AutoSelect=N.A.   AnalSect=LB   MatProp=Default
   Frame=1050056   AutoSelect=N.A.   AnalSect=LB   MatProp=Default
   Frame=1050057   AutoSelect=N.A.   AnalSect=LB   MatProp=Default
   Frame=1050058   AutoSelect=N.A.   AnalSect=LB   MatProp=Default
   Frame=1050059   AutoSelect=N.A.   AnalSect=LB   MatProp=Default
   Frame=1050060   AutoSelect=N.A.   AnalSect=LB   MatProp=Default
   Frame=1050061   AutoSelect=N.A.   AnalSect=LB   MatProp=Default
   Frame=1050062   AutoSelect=N.A.   AnalSect=LB   MatProp=Default
   Frame=1050063   AutoSelect=N.A.   AnalSect=LB   MatProp=Default
   Frame=1050064   AutoSelect=N.A.   AnalSect=LB   MatProp=Default
   Frame=1050065   AutoSelect=N.A.   AnalSect=LB   MatProp=Default
   Frame=1050066   AutoSelect=N.A.   AnalSect=LB   MatProp=Default
   Frame=1050067   AutoSelect=N.A.   AnalSect=LB   MatProp=Default
   Frame=1050068   AutoSelect=N.A.   AnalSect=LB   MatProp=Default
# ... 12 like lines cut
   Frame=1050081   AutoSelect=N.A.   AnalSect=EB   MatProp=Default
   Frame=1050082   AutoSelect=N.A.   AnalSect=Piles   MatProp=Default
   Frame=1050083   AutoSelect=N.A.   AnalSect=Piles   MatProp=Default
   Frame=1050084   AutoSelect=N.A.   AnalSect=EB   MatProp=Default
   Frame=1050085   AutoSelect=N.A.   AnalSect=Piles   MatProp=Default
   Frame=1050086   AutoSelect=N.A.   AnalSect=Piles   MatProp=Default
   Frame=1050087   AutoSelect=N.A.   AnalSect=EB   MatProp=Default
   Frame=1050088   AutoSelect=N.A.   AnalSect=Piles   MatProp=Default
   Frame=1050089   AutoSelect=N.A.   AnalSect=Piles   MatProp=Default
   Frame=1050090   AutoSelect=N.A.   AnalSect=EB   MatProp=Default
   Frame=1050091   AutoSelect=N.A.   AnalSect=Piles   MatProp=Default
   Frame=1050092   AutoSelect=N.A.   AnalSect=Piles   MatProp=Default
   Frame=1050093   AutoSelect=N.A.   AnalSect=EB   MatProp=Default
   Frame=1050094   AutoSelect=N.A.   AnalSect=Piles   MatProp=Default
   Frame=1050095   AutoSelect=N.A.   AnalSect=Piles   MatProp=Default
   Frame=1050096   AutoSelect=N.A.   AnalSect=EB   MatProp=Default
   Frame=1050097   AutoSelect=N.A.   AnalSect=Piles   MatProp=Default
   Frame=1050098   AutoSelect=N.A.   AnalSect=Piles   MatProp=Default
   Frame=1050099   AutoSelect=N.A.   AnalSect=EB   MatProp=Default
   Frame=1050100   AutoSelect=N.A.   AnalSect=Piles   MatProp=Default
   Frame=1050101   AutoSelect=N.A.   AnalSect=Piles   MatProp=Default
   Frame=1050102   AutoSelect=N.A.   AnalSect=Piles   MatProp=Default
   Frame=1050103   AutoSelect=N.A.   AnalSect=Piles   MatProp=Default
   Frame=1050104   AutoSelect=N.A.   AnalSect=Piles   MatProp=Default
   Frame=1050105   AutoSelect=N.A.   AnalSect=Piles   MatProp=Default
   Frame=1050106   AutoSelect=N.A.   AnalSect=Piles   MatProp=Default
   Frame=1050107   AutoSelect=N.A.   AnalSect=Piles   MatProp=Default
   Frame=1050108   AutoSelect=N.A.   AnalSect=Piles   MatProp=Default
   Frame=1050109   AutoSelect=N.A.   AnalSect=Piles   MatProp=Default
   Frame=1050110   AutoSelect=N.A.   AnalSect=Piles   MatProp=Default
   Frame=1050111   AutoSelect=N.A.   AnalSect=Piles   MatProp=Default
   Frame=1050112   AutoSelect=N.A.   AnalSect=Piles   MatProp=Default
   Frame=1050113   AutoSelect=N.A.   AnalSect=Piles   MatProp=Default
   Frame=1050114   AutoSelect=N.A.   AnalSect=Piles   MatProp=Default
   Frame=1050115   AutoSelect=N.A.   AnalSect=Piles   MatProp=Default
   Frame=1050116   AutoSelect=N.A.   AnalSect=Piles   MatProp=Default
   Frame=1050117   AutoSelect=N.A.   AnalSect=Piles   MatProp=Default
   Frame=1050118   AutoSelect=N.A.   AnalSect=Piles   MatProp=Default
   Frame=1050119   AutoSelect=N.A.   AnalSect=Piles   MatProp=Default
# ... 24 like lines cut
   Frame=1050144   AutoSelect=N.A.   AnalSect=EB-1   MatProp=Default
   Frame=1050145   AutoSelect=N.A.   AnalSect=EB-1   MatProp=Default
   Frame=1050146   AutoSelect=N.A.   AnalSect=EB-1   MatProp=Default
   Frame=1050147   AutoSelect=N.A.   AnalSect=EB-1   MatProp=Default
   Frame=1050148   AutoSelect=N.A.   AnalSect=EB-1   MatProp=Default
   Frame=1050149   AutoSelect=N.A.   AnalSect=EB-1   MatProp=Default
 
TABLE:  "FRAME SECTION PROPERTIES 01 - GENERAL"
   SectionName=EB   Material=BTCT   Shape=Rectangular   t3=1.2   t2=0.5   Area=0.6   TorsConst=0.0369079665195795   I33=0.072   I22=0.0125   I23=0   AS2=0.5   AS3=0.5   S33Top=0.12   S33Bot=0.12   S22Left=0.05   S22Right=0.05   Z33=0.18 _
        Z22=0.075   R33=0.346410161513775   R22=0.144337567297406   CGOffset3=0   CGOffset2=0   EccV2=0   EccV3=0   Cw=0   Color=Gray8Dark   FromFile=No   AMod=1   A2Mod=1   A3Mod=1   JMod=1   I2Mod=1   I3Mod=1   MMod=1   WMod=1
   SectionName=EB-1   Material=BTCT   Shape=Rectangular   t3=0.5   t2=0.5   Area=0.25   TorsConst=0.00880208333333333   I33=0.00520833333333333   I22=0.00520833333333333   I23=0   AS2=0.208333333333333   AS3=0.208333333333333 _
        S33Top=0.0208333333333333   S33Bot=0.0208333333333333   S22Left=0.0208333333333333   S22Right=0.0208333333333333   Z33=0.03125   Z22=0.03125   R33=0.144337567297406   R22=0.144337567297406   CGOffset3=0   CGOffset2=0   EccV2=0 _
        EccV3=0   Cw=0   Color=Blue   FromFile=No   AMod=1   A2Mod=1   A3Mod=1   JMod=1   I2Mod=1   I3Mod=1   MMod=1   WMod=1
   SectionName=LB   Material=BTCT   Shape=Rectangular   t3=0.5   t2=0.5   Area=0.25   TorsConst=0.00880208333333333   I33=0.00520833333333333   I22=0.00520833333333333   I23=0   AS2=0.208333333333333   AS3=0.208333333333333 _
        S33Top=0.0208333333333333   S33Bot=0.0208333333333333   S22Left=0.0208333333333333   S22Right=0.0208333333333333   Z33=0.03125   Z22=0.03125   R33=0.144337567297406   R22=0.144337567297406   CGOffset3=0   CGOffset2=0   EccV2=0 _
        EccV3=0   Cw=0   Color=Yellow   FromFile=No   AMod=1   A2Mod=1   A3Mod=1   JMod=1   I2Mod=1   I3Mod=1   MMod=1   WMod=1
   SectionName=Piles   Material=BTCTCOC   Shape=Pipe   t3=0.3   tw=0.06   Area=0.045238934211693   TorsConst=0.000692155693438903   I33=0.000346077846719452   I22=0.000346077846719452   I23=0   AS2=0.0235427106611872 _
        AS3=0.0235427106611872   S33Top=0.00230718564479634   S33Bot=0.00230718564479634   S22Left=0.00230718564479634   S22Right=0.00230718564479634   Z33=0.003528   Z22=0.003528   R33=0.0874642784226795   R22=0.0874642784226795 _
        CGOffset3=0   CGOffset2=0   EccV2=0   EccV3=0   Cw=0   Color=Green   FromFile=No   AMod=1   A2Mod=1   A3Mod=1   JMod=1   I2Mod=1   I3Mod=1   MMod=1   WMod=1
   SectionName=TB   Material=BTCT   Shape=Rectangular   t3=0.5   t2=0.5   Area=0.25   TorsConst=0.00880208333333333   I33=0.00520833333333333   I22=0.00520833333333333   I23=0   AS2=0.208333333333333   AS3=0.208333333333333 _
        S33Top=0.0208333333333333   S33Bot=0.0208333333333333   S22Left=0.0208333333333333   S22Right=0.0208333333333333   Z33=0.03125   Z22=0.03125   R33=0.144337567297406   R22=0.144337567297406   CGOffset3=0   CGOffset2=0   EccV2=0 _
        EccV3=0   Cw=0   Color=Magenta   FromFile=No   AMod=1   A2Mod=1   A3Mod=1   JMod=1   I2Mod=1   I3Mod=1   MMod=1   WMod=1
 
TABLE:  "FRAME SECTION PROPERTIES 02 - CONCRETE COLUMN"
   SectionName=EB   RebarMatL=A706   RebarMatC=A706   ReinfConfig=Rectangular   LatReinf=Ties   Cover=0.05   NumBars3Dir=2   NumBars2Dir=2   BarSizeL=12d   BarSizeC=10d   SpacingC=0.1   NumCBars2=2   NumCBars3=2   ReinfType=Design
   SectionName=EB-1   RebarMatL=A706   RebarMatC=A706   ReinfConfig=Rectangular   LatReinf=Ties   Cover=0.05   NumBars3Dir=2   NumBars2Dir=2   BarSizeL=12d   BarSizeC=10d   SpacingC=0.1   NumCBars2=2   NumCBars3=2   ReinfType=Design
   SectionName=LB   RebarMatL=A706   RebarMatC=A706   ReinfConfig=Rectangular   LatReinf=Ties   Cover=0.05   NumBars3Dir=2   NumBars2Dir=2   BarSizeL=12d   BarSizeC=10d   SpacingC=0.1   NumCBars2=2   NumCBars3=2   ReinfType=Design
   SectionName=TB   RebarMatL=A706   RebarMatC=A706   ReinfConfig=Rectangular   LatReinf=Ties   Cover=0.05   NumBars3Dir=2   NumBars2Dir=2   BarSizeL=12d   BarSizeC=10d   SpacingC=0.1   NumCBars2=2   NumCBars3=2   ReinfType=Design
 
TABLE:  "FRAME SECTION PROPERTIES 13 - TIME DEPENDENT"
   SectionName=EB   TypeSize=Auto   AutoSFSize=1
   SectionName=EB-1   TypeSize=Auto   AutoSFSize=1
   SectionName=LB   TypeSize=Auto   AutoSFSize=1
   SectionName=Piles   TypeSize=Auto   AutoSFSize=1
   SectionName=TB   TypeSize=Auto   AutoSFSize=1
 
TABLE:  "FUNCTION - PLOT FUNCTIONS"
   PlotFunc="Input Energy"   Type=Energy   Component=Input   Mode=All
 
TABLE:  "FUNCTION - POWER SPECTRAL DENSITY - USER"
   Name=UNIFPSD   Frequency=0   Value=1
   Name=UNIFPSD   Frequency=1   Value=1
 
TABLE:  "FUNCTION - RESPONSE SPECTRUM - USER"
   Name=UNIFRS   Period=0   Accel=1   FuncDamp=0.05
   Name=UNIFRS   Period=1   Accel=1
 
TABLE:  "FUNCTION - STEADY STATE - USER"
   Name=UNIFSS   Frequency=0   Value=1
   Name=UNIFSS   Frequency=1   Value=1
 
TABLE:  "FUNCTION - TIME HISTORY - USER"
   Name=RAMPTH   Time=0   Value=0
   Name=RAMPTH   Time=1   Value=1
   Name=RAMPTH   Time=4   Value=1
   Name=UNIFTH   Time=0   Value=1
   Name=UNIFTH   Time=1   Value=1
 
TABLE:  "GRID LINES"
   CoordSys=GLOBAL   AxisDir=X   GridID=A   XRYZCoord=-10   LineType=Primary   LineColor=Gray8Dark   Visible=Yes   BubbleLoc=End   AllVisible=Yes   BubbleSize=0.9375
   CoordSys=GLOBAL   AxisDir=X   GridID=B   XRYZCoord=-9   LineType=Primary   LineColor=Gray8Dark   Visible=Yes   BubbleLoc=End
   CoordSys=GLOBAL   AxisDir=X   GridID=C   XRYZCoord=-4.5   LineType=Primary   LineColor=Gray8Dark   Visible=Yes   BubbleLoc=End
   CoordSys=GLOBAL   AxisDir=X   GridID=D   XRYZCoord=0   LineType=Primary   LineColor=Gray8Dark   Visible=Yes   BubbleLoc=End
   CoordSys=GLOBAL   AxisDir=X   GridID=E   XRYZCoord=4.5   LineType=Primary   LineColor=Gray8Dark   Visible=Yes   BubbleLoc=End
   CoordSys=GLOBAL   AxisDir=X   GridID=F   XRYZCoord=9   LineType=Primary   LineColor=Gray8Dark   Visible=Yes   BubbleLoc=End
   CoordSys=GLOBAL   AxisDir=X   GridID=G   XRYZCoord=10   LineType=Primary   LineColor=Gray8Dark   Visible=Yes   BubbleLoc=End
   CoordSys=GLOBAL   AxisDir=Y   GridID=1   XRYZCoord=-5.2   LineType=Primary   LineColor=Gray8Dark   Visible=Yes   BubbleLoc=Start
   CoordSys=GLOBAL   AxisDir=Y   GridID=2   XRYZCoord=-4.2   LineType=Primary   LineColor=Gray8Dark   Visible=Yes   BubbleLoc=Start
   CoordSys=GLOBAL   AxisDir=Y   GridID=3   XRYZCoord=0   LineType=Primary   LineColor=Gray8Dark   Visible=Yes   BubbleLoc=Start
   CoordSys=GLOBAL   AxisDir=Y   GridID=4   XRYZCoord=4.2   LineType=Primary   LineColor=Gray8Dark   Visible=Yes   BubbleLoc=Start
   CoordSys=GLOBAL   AxisDir=Y   GridID=5   XRYZCoord=4.8   LineType=Primary   LineColor=Gray8Dark   Visible=Yes   BubbleLoc=Start
   CoordSys=GLOBAL   AxisDir=Z   GridID=Z1   XRYZCoord=0   LineType=Primary   LineColor=Gray8Dark   Visible=Yes   BubbleLoc=End
   CoordSys=GLOBAL   AxisDir=Z   GridID=Z2   XRYZCoord=13   LineType=Primary   LineColor=Gray8Dark   Visible=Yes   BubbleLoc=End
 
TABLE:  "GROUPS 1 - DEFINITIONS"
   GroupName=ALL   Selection=Yes   SectionCut=Yes   Steel=Yes   Concrete=Yes   Aluminum=Yes   ColdFormed=Yes   Stage=Yes   Bridge=Yes   AutoSeismic=No   AutoWind=No   SelDesSteel=No   SelDesAlum=No   SelDesCold=No   MassWeight=Yes   Color=Red
   GroupName=Pile   Selection=Yes   SectionCut=Yes   Steel=Yes   Concrete=Yes   Aluminum=Yes   ColdFormed=Yes   Stage=Yes   Bridge=Yes   AutoSeismic=No   AutoWind=No   SelDesSteel=No   SelDesAlum=No   SelDesCold=No   MassWeight=Yes   Color=Gray8Dark
   GroupName=DN   Selection=Yes   SectionCut=Yes   Steel=Yes   Concrete=Yes   Aluminum=Yes   ColdFormed=Yes   Stage=Yes   Bridge=Yes   AutoSeismic=No   AutoWind=No   SelDesSteel=No   SelDesAlum=No   SelDesCold=No   MassWeight=Yes   Color=Yellow
   GroupName=Pile_Toe   Selection=Yes   SectionCut=Yes   Steel=Yes   Concrete=Yes   Aluminum=Yes   ColdFormed=Yes   Stage=Yes   Bridge=Yes   AutoSeismic=No   AutoWind=No   SelDesSteel=No   SelDesAlum=No   SelDesCold=No   MassWeight=Yes   Color=Green
   GroupName=Pile_Bend   Selection=Yes   SectionCut=Yes   Steel=Yes   Concrete=Yes   Aluminum=Yes   ColdFormed=Yes   Stage=Yes   Bridge=Yes   AutoSeismic=No   AutoWind=No   SelDesSteel=No   SelDesAlum=No   SelDesCold=No   MassWeight=Yes   Color=Cyan
   GroupName=Beam   Selection=Yes   SectionCut=Yes   Steel=Yes   Concrete=Yes   Aluminum=Yes   ColdFormed=Yes   Stage=Yes   Bridge=Yes   AutoSeismic=No   AutoWind=No   SelDesSteel=No   SelDesAlum=No   SelDesCold=No   MassWeight=Yes   Color=Blue
   GroupName=Piles   Selection=Yes   SectionCut=Yes   Steel=Yes   Concrete=Yes   Aluminum=Yes   ColdFormed=Yes   Stage=Yes   Bridge=Yes   AutoSeismic=No   AutoWind=No   SelDesSteel=No   SelDesAlum=No   SelDesCold=No   MassWeight=Yes   Color=Cyan
   GroupName=Beams   Selection=Yes   SectionCut=Yes   Steel=Yes   Concrete=Yes   Aluminum=Yes   ColdFormed=Yes   Stage=Yes   Bridge=Yes   AutoSeismic=No   AutoWind=No   SelDesSteel=No   SelDesAlum=No   SelDesCold=No   MassWeight=Yes   Color=Red
 
TABLE:  "GROUPS 2 - ASSIGNMENTS"
 
TABLE:  "JOINT COORDINATES"
   Joint=918522   CoordSys=GLOBAL   CoordType=Cartesian   XorR=-9   Y=-5   Z=0   SpecialJt=No   GUID=98e58db0-d90a-4f0f-b518-28275515db36
   Joint=918523   CoordSys=GLOBAL   CoordType=Cartesian   XorR=-9   Y=-4.5   Z=0   SpecialJt=No   GUID=4ad1ce5d-94fd-48d0-9b8a-677b9ee722f7
   Joint=918524   CoordSys=GLOBAL   CoordType=Cartesian   XorR=-6   Y=-5   Z=0   SpecialJt=No   GUID=a5337c7d-6506-409d-b96e-554b4ecb798b
   Joint=918525   CoordSys=GLOBAL   CoordType=Cartesian   XorR=-6   Y=-4.5   Z=0   SpecialJt=No   GUID=829e3117-7528-48fb-9f77-a88e1044ed8c
   Joint=918526   CoordSys=GLOBAL   CoordType=Cartesian   XorR=-3   Y=-5   Z=0   SpecialJt=No   GUID=799a8ee8-cec1-47c8-a6da-e24b60018275
   Joint=918527   CoordSys=GLOBAL   CoordType=Cartesian   XorR=-3   Y=-4.5   Z=0   SpecialJt=No   GUID=fbb461e3-def7-4c1f-b29f-3165e998d4ea
   Joint=918528   CoordSys=GLOBAL   CoordType=Cartesian   XorR=0   Y=-5   Z=0   SpecialJt=No   GUID=850a91c9-05b4-4f28-9c33-a6cd7af81d37
   Joint=918529   CoordSys=GLOBAL   CoordType=Cartesian   XorR=0   Y=-4.5   Z=0   SpecialJt=No   GUID=67715cca-71b6-4129-95d0-8d63ca22f01d
   Joint=918530   CoordSys=GLOBAL   CoordType=Cartesian   XorR=3   Y=-5   Z=0   SpecialJt=No   GUID=abbf50e0-b8e0-4c63-9d93-aeb2279c9cf8
   Joint=918531   CoordSys=GLOBAL   CoordType=Cartesian   XorR=3   Y=-4.5   Z=0   SpecialJt=No   GUID=ebd64f54-a3ae-4fa3-90cd-c4d34189915d
   Joint=918532   CoordSys=GLOBAL   CoordType=Cartesian   XorR=6   Y=-5   Z=0   SpecialJt=No   GUID=a141a022-b51f-4529-81aa-b2cc9cd07a41
   Joint=918533   CoordSys=GLOBAL   CoordType=Cartesian   XorR=6   Y=-4.5   Z=0   SpecialJt=No   GUID=2b8c4af5-ad34-406b-b7c1-745f7c6089c8
   Joint=918534   CoordSys=GLOBAL   CoordType=Cartesian   XorR=9   Y=-5   Z=0   SpecialJt=No   GUID=bdfbed28-b722-4116-8dba-362b2fbbf6df
   Joint=918535   CoordSys=GLOBAL   CoordType=Cartesian   XorR=9   Y=-4.5   Z=0   SpecialJt=No   GUID=f77eb0b3-9ed3-487a-951c-16a464034e12
   Joint=918536   CoordSys=GLOBAL   CoordType=Cartesian   XorR=-9   Y=-1.5   Z=0   SpecialJt=No   GUID=18e16a73-39b1-4875-9360-43737fcb7405
   Joint=918537   CoordSys=GLOBAL   CoordType=Cartesian   XorR=-6   Y=-1.5   Z=0   SpecialJt=No   GUID=30d68ba1-2fa0-46c3-84bd-dc0329d39f9c
   Joint=918538   CoordSys=GLOBAL   CoordType=Cartesian   XorR=-3   Y=-1.5   Z=0   SpecialJt=No   GUID=7bbccd31-4960-4cab-843f-5af2d60246be
   Joint=918539   CoordSys=GLOBAL   CoordType=Cartesian   XorR=0   Y=-1.5   Z=0   SpecialJt=No   GUID=e6657dc4-4173-433b-9673-10e6a48fbe00
   Joint=918540   CoordSys=GLOBAL   CoordType=Cartesian   XorR=3   Y=-1.5   Z=0   SpecialJt=No   GUID=8038c74f-d420-40d6-b8b0-36a56dacd28a
   Joint=918541   CoordSys=GLOBAL   CoordType=Cartesian   XorR=6   Y=-1.5   Z=0   SpecialJt=No   GUID=2fcdd685-9cfa-4626-b957-3e6b3d9a54c2
   Joint=918542   CoordSys=GLOBAL   CoordType=Cartesian   XorR=9   Y=-1.5   Z=0   SpecialJt=No   GUID=171c6229-c468-4ca7-a2ac-07810ec831fb
   Joint=918543   CoordSys=GLOBAL   CoordType=Cartesian   XorR=-9   Y=1.5   Z=0   SpecialJt=No   GUID=72f93188-b863-4542-9f3f-1eebb32297ed
   Joint=918544   CoordSys=GLOBAL   CoordType=Cartesian   XorR=-6   Y=1.5   Z=0   SpecialJt=No   GUID=c4071254-6e5a-4320-8afa-7fb57fd7255f
   Joint=918545   CoordSys=GLOBAL   CoordType=Cartesian   XorR=-3   Y=1.5   Z=0   SpecialJt=No   GUID=470dbba1-b9ff-4195-a384-1c7fa630903f
   Joint=918546   CoordSys=GLOBAL   CoordType=Cartesian   XorR=0   Y=1.5   Z=0   SpecialJt=No   GUID=bf789823-01f4-467d-abad-8da94e7e9c65
   Joint=918547   CoordSys=GLOBAL   CoordType=Cartesian   XorR=3   Y=1.5   Z=0   SpecialJt=No   GUID=9df10956-59fa-4816-b88c-0be9f18bd1f6
   Joint=918548   CoordSys=GLOBAL   CoordType=Cartesian   XorR=6   Y=1.5   Z=0   SpecialJt=No   GUID=1b618b7b-b13d-422b-a916-73ed720e4ee8
   Joint=918549   CoordSys=GLOBAL   CoordType=Cartesian   XorR=9   Y=1.5   Z=0   SpecialJt=No   GUID=3bc6d726-069e-4bd1-8078-393adf87301b
   Joint=918550   CoordSys=GLOBAL   CoordType=Cartesian   XorR=-9   Y=4.5   Z=0   SpecialJt=No   GUID=40a6b477-d502-44c8-a658-2d17d8c1ba4e
   Joint=918551   CoordSys=GLOBAL   CoordType=Cartesian   XorR=-6   Y=4.5   Z=0   SpecialJt=No   GUID=9fc42392-a934-4025-8d9e-3e9cb5497f41
   Joint=918552   CoordSys=GLOBAL   CoordType=Cartesian   XorR=-3   Y=4.5   Z=0   SpecialJt=No   GUID=73f34967-f2de-4e09-b74e-750133d3d9ba
   Joint=918553   CoordSys=GLOBAL   CoordType=Cartesian   XorR=0   Y=4.5   Z=0   SpecialJt=No   GUID=b3d701d0-32d0-44fd-b980-3d29f55b4f83
   Joint=918554   CoordSys=GLOBAL   CoordType=Cartesian   XorR=3   Y=4.5   Z=0   SpecialJt=No   GUID=81b05185-de5f-4305-817f-dd3ccdccc327
   Joint=918555   CoordSys=GLOBAL   CoordType=Cartesian   XorR=6   Y=4.5   Z=0   SpecialJt=No   GUID=2d8e92d2-ea1d-4dd9-a208-7c8240256ab0
   Joint=918556   CoordSys=GLOBAL   CoordType=Cartesian   XorR=9   Y=4.5   Z=0   SpecialJt=No   GUID=e34d31a4-cf59-4eb9-b1ce-07f85b0dad0f
   Joint=918557   CoordSys=GLOBAL   CoordType=Cartesian   XorR=-9   Y=5   Z=0   SpecialJt=No   GUID=134a5a11-493d-40fe-9217-82b48cb0baad
   Joint=918558   CoordSys=GLOBAL   CoordType=Cartesian   XorR=-6   Y=5   Z=0   SpecialJt=No   GUID=58cc3c93-3071-4d08-8f1a-2e3f8b791eea
   Joint=918559   CoordSys=GLOBAL   CoordType=Cartesian   XorR=-3   Y=5   Z=0   SpecialJt=No   GUID=98691a8b-a1f2-4446-8516-3be33f47fb99
   Joint=918560   CoordSys=GLOBAL   CoordType=Cartesian   XorR=0   Y=5   Z=0   SpecialJt=No   GUID=e4c21034-d9e0-4f5e-ab2a-cf45570d40ab
   Joint=918561   CoordSys=GLOBAL   CoordType=Cartesian   XorR=3   Y=5   Z=0   SpecialJt=No   GUID=6469ebbb-2da2-4e9b-a0ea-15fc89366a61
   Joint=918562   CoordSys=GLOBAL   CoordType=Cartesian   XorR=6   Y=5   Z=0   SpecialJt=No   GUID=89bbb9b1-e3dc-4b3e-a10b-5fbd3cb1c416
   Joint=918563   CoordSys=GLOBAL   CoordType=Cartesian   XorR=9   Y=5   Z=0   SpecialJt=No   GUID=f1b16d0e-3be7-40ec-8273-ad2c760222b2
   Joint=918564   CoordSys=GLOBAL   CoordType=Cartesian   XorR=-10   Y=-4.5   Z=0   SpecialJt=No   GUID=b174ddcd-796b-46f2-947b-2029bb19b87d
   Joint=918565   CoordSys=GLOBAL   CoordType=Cartesian   XorR=-10   Y=-1.5   Z=0   SpecialJt=No   GUID=3ba172de-02d4-43aa-beda-b87be2bf0835
   Joint=918566   CoordSys=GLOBAL   CoordType=Cartesian   XorR=-10   Y=1.5   Z=0   SpecialJt=No   GUID=ffc2263d-c1bb-40cb-ad30-315a3d829769
   Joint=918567   CoordSys=GLOBAL   CoordType=Cartesian   XorR=-10   Y=4.5   Z=0   SpecialJt=No   GUID=a9486e2e-0d7f-491c-aa6f-bc14fe4377f9
   Joint=918568   CoordSys=GLOBAL   CoordType=Cartesian   XorR=10   Y=-4.5   Z=0   SpecialJt=No   GUID=fbb07438-fcc8-4bcb-a86d-3133d26905ba
   Joint=918569   CoordSys=GLOBAL   CoordType=Cartesian   XorR=10   Y=-1.5   Z=0   SpecialJt=No   GUID=471a7306-14e7-46b2-8a18-80d5c3118be8
   Joint=918570   CoordSys=GLOBAL   CoordType=Cartesian   XorR=10   Y=1.5   Z=0   SpecialJt=No   GUID=bab55298-d03f-444f-b1fd-ba40e13e61c4
   Joint=918571   CoordSys=GLOBAL   CoordType=Cartesian   XorR=10   Y=4.5   Z=0   SpecialJt=No   GUID=fce7bcf6-e4fc-4564-bb03-9ebd284bf26c
   Joint=918572   CoordSys=GLOBAL   CoordType=Cartesian   XorR=-9   Y=-4.5   Z=-3   SpecialJt=No   GUID=574ecdd9-3fff-4cfd-9467-e6bda845b5fe
   Joint=918573   CoordSys=GLOBAL   CoordType=Cartesian   XorR=-9   Y=-4.5   Z=-13.4180229476075   SpecialJt=No   GUID=4527aff0-099e-4e98-9280-8e142f95ded5
   Joint=918574   CoordSys=GLOBAL   CoordType=Cartesian   XorR=-9   Y=-4.5   Z=-16   SpecialJt=No   GUID=41fb83cd-d925-4ef1-aa25-b0c95e4e645c
   Joint=918575   CoordSys=GLOBAL   CoordType=Cartesian   XorR=-6   Y=-4.5   Z=-3   SpecialJt=No   GUID=5f23908d-07d7-4b19-ba3c-fa9d2407718b
   Joint=918576   CoordSys=GLOBAL   CoordType=Cartesian   XorR=-6   Y=-4.5   Z=-13.4180229476075   SpecialJt=No   GUID=3b3c4399-36d4-44cb-9d6a-c62dda8acc56
   Joint=918577   CoordSys=GLOBAL   CoordType=Cartesian   XorR=-6   Y=-4.5   Z=-16   SpecialJt=No   GUID=972ed98d-504e-4c49-a46c-cc641933fc43
   Joint=918578   CoordSys=GLOBAL   CoordType=Cartesian   XorR=-3   Y=-4.5   Z=-3   SpecialJt=No   GUID=d44f123f-bafb-4c42-98ee-4abba51d94f2
   Joint=918579   CoordSys=GLOBAL   CoordType=Cartesian   XorR=-3   Y=-4.5   Z=-13.4180229476075   SpecialJt=No   GUID=11e84492-96e7-44cb-9266-6dfdc2a6f440
   Joint=918580   CoordSys=GLOBAL   CoordType=Cartesian   XorR=-3   Y=-4.5   Z=-16   SpecialJt=No   GUID=3ae52d3d-23b9-47cd-877b-ee3f74db7821
   Joint=918581   CoordSys=GLOBAL   CoordType=Cartesian   XorR=0   Y=-4.5   Z=-3   SpecialJt=No   GUID=fd24a5f6-7858-4888-80c7-2e729ddc755c
   Joint=918582   CoordSys=GLOBAL   CoordType=Cartesian   XorR=0   Y=-4.5   Z=-13.4180229476075   SpecialJt=No   GUID=ce41c62c-92cc-4fb0-96c9-88fb05c4d256
   Joint=918583   CoordSys=GLOBAL   CoordType=Cartesian   XorR=0   Y=-4.5   Z=-16   SpecialJt=No   GUID=78923b85-809b-4811-a05c-327da484e116
   Joint=918584   CoordSys=GLOBAL   CoordType=Cartesian   XorR=3   Y=-4.5   Z=-3   SpecialJt=No   GUID=a63454c0-b621-4897-9938-351b0105c86f
   Joint=918585   CoordSys=GLOBAL   CoordType=Cartesian   XorR=3   Y=-4.5   Z=-13.4180229476075   SpecialJt=No   GUID=3babac52-97f4-44a4-9975-7f9ee8d61414
   Joint=918586   CoordSys=GLOBAL   CoordType=Cartesian   XorR=3   Y=-4.5   Z=-16   SpecialJt=No   GUID=3c7355a3-2a32-4668-a4de-ecc4b2747edc
   Joint=918587   CoordSys=GLOBAL   CoordType=Cartesian   XorR=6   Y=-4.5   Z=-3   SpecialJt=No   GUID=160029dc-46d7-44cd-89cf-f22101e695e7
   Joint=918588   CoordSys=GLOBAL   CoordType=Cartesian   XorR=6   Y=-4.5   Z=-13.4180229476075   SpecialJt=No   GUID=a3d4157e-7e34-40c4-8675-b884ec1edd29
   Joint=918589   CoordSys=GLOBAL   CoordType=Cartesian   XorR=6   Y=-4.5   Z=-16   SpecialJt=No   GUID=fddc6e52-4be8-41e0-ac38-96114015ad66
   Joint=918590   CoordSys=GLOBAL   CoordType=Cartesian   XorR=9   Y=-4.5   Z=-3   SpecialJt=No   GUID=ec3e6160-1348-4c10-97f7-9a5e9b9c2a83
   Joint=918591   CoordSys=GLOBAL   CoordType=Cartesian   XorR=9   Y=-4.5   Z=-13.4180229476075   SpecialJt=No   GUID=3a9965d4-7162-459b-9c26-365be73b409a
   Joint=918592   CoordSys=GLOBAL   CoordType=Cartesian   XorR=9   Y=-4.5   Z=-16   SpecialJt=No   GUID=e8846ac0-622b-43e4-bbb4-7151372908d3
   Joint=918593   CoordSys=GLOBAL   CoordType=Cartesian   XorR=-9   Y=-1.5   Z=-13.4180229476075   SpecialJt=No   GUID=701d73ef-802e-4235-a57e-3b750136063d
   Joint=918594   CoordSys=GLOBAL   CoordType=Cartesian   XorR=-9   Y=-1.5   Z=-16   SpecialJt=No   GUID=5e9142df-1799-4dd5-ba73-7d3a2a4b5ea8
   Joint=918595   CoordSys=GLOBAL   CoordType=Cartesian   XorR=-6   Y=-1.5   Z=-13.4180229476075   SpecialJt=No   GUID=0b1fe3e2-c7f9-48fc-8b01-4d855e7a7952
   Joint=918596   CoordSys=GLOBAL   CoordType=Cartesian   XorR=-6   Y=-1.5   Z=-16   SpecialJt=No   GUID=62f2d648-fe48-4528-b367-254b51bf8252
   Joint=918597   CoordSys=GLOBAL   CoordType=Cartesian   XorR=-3   Y=-1.5   Z=-13.4180229476075   SpecialJt=No   GUID=b83bca9e-e124-4d8c-bce8-554deeaf5f82
   Joint=918598   CoordSys=GLOBAL   CoordType=Cartesian   XorR=-3   Y=-1.5   Z=-16   SpecialJt=No   GUID=e64c71c6-6b6a-4b69-832a-97295a29c8f7
   Joint=918599   CoordSys=GLOBAL   CoordType=Cartesian   XorR=0   Y=-1.5   Z=-13.4180229476075   SpecialJt=No   GUID=6f69995a-a945-4423-9b36-f83cbaafd79c
   Joint=918600   CoordSys=GLOBAL   CoordType=Cartesian   XorR=0   Y=-1.5   Z=-16   SpecialJt=No   GUID=72319732-e64f-4b89-a45b-ba1d293fe471
   Joint=918601   CoordSys=GLOBAL   CoordType=Cartesian   XorR=3   Y=-1.5   Z=-13.4180229476075   SpecialJt=No   GUID=17543dde-2e0a-4413-b84c-55cd30c2a949
   Joint=918602   CoordSys=GLOBAL   CoordType=Cartesian   XorR=3   Y=-1.5   Z=-16   SpecialJt=No   GUID=a9686272-ee82-42ca-92c8-ceedef7e6af6
   Joint=918603   CoordSys=GLOBAL   CoordType=Cartesian   XorR=6   Y=-1.5   Z=-13.4180229476075   SpecialJt=No   GUID=bf782bf2-0d43-4f31-9de0-c919ee6b38c9
   Joint=918604   CoordSys=GLOBAL   CoordType=Cartesian   XorR=6   Y=-1.5   Z=-16   SpecialJt=No   GUID=ed5511fb-67ef-4d16-846d-106e48fa65d1
   Joint=918605   CoordSys=GLOBAL   CoordType=Cartesian   XorR=9   Y=-1.5   Z=-13.4180229476075   SpecialJt=No   GUID=c7a7a591-993e-4681-82db-b696b2e4e7a3
   Joint=918606   CoordSys=GLOBAL   CoordType=Cartesian   XorR=9   Y=-1.5   Z=-16   SpecialJt=No   GUID=b41c8980-63a4-4041-a435-751ec3b4e92d
   Joint=918607   CoordSys=GLOBAL   CoordType=Cartesian   XorR=-9   Y=1.5   Z=-13.4180229476075   SpecialJt=No   GUID=f6e7fa3c-1957-4e47-bd7d-8110c017bf48
   Joint=918608   CoordSys=GLOBAL   CoordType=Cartesian   XorR=-9   Y=1.5   Z=-16   SpecialJt=No   GUID=e2a35082-781c-4e12-af4a-cbcd324d72c6
   Joint=918609   CoordSys=GLOBAL   CoordType=Cartesian   XorR=-6   Y=1.5   Z=-13.4180229476075   SpecialJt=No   GUID=6b41ea53-8b6c-483b-87e2-9f21dc6ce8ab
   Joint=918610   CoordSys=GLOBAL   CoordType=Cartesian   XorR=-6   Y=1.5   Z=-16   SpecialJt=No   GUID=3fa46407-6ac7-44e4-99a8-6c88d9ba26d5
   Joint=918611   CoordSys=GLOBAL   CoordType=Cartesian   XorR=-3   Y=1.5   Z=-13.4180229476075   SpecialJt=No   GUID=55a4ff69-7b4e-47ee-b405-e9f61a85904c
   Joint=918612   CoordSys=GLOBAL   CoordType=Cartesian   XorR=-3   Y=1.5   Z=-16   SpecialJt=No   GUID=4c1f50c2-cf70-40d8-ad64-f3b187b64ebb
   Joint=918613   CoordSys=GLOBAL   CoordType=Cartesian   XorR=0   Y=1.5   Z=-13.4180229476075   SpecialJt=No   GUID=c03bcbc5-6f58-418f-a598-764207cb8be9
   Joint=918614   CoordSys=GLOBAL   CoordType=Cartesian   XorR=0   Y=1.5   Z=-16   SpecialJt=No   GUID=3f424ad2-70d7-400b-bde9-c34d1eb89be1
   Joint=918615   CoordSys=GLOBAL   CoordType=Cartesian   XorR=3   Y=1.5   Z=-13.4180229476075   SpecialJt=No   GUID=9e4771e3-6172-408d-893c-3b0c76b94460
   Joint=918616   CoordSys=GLOBAL   CoordType=Cartesian   XorR=3   Y=1.5   Z=-16   SpecialJt=No   GUID=fc1d7fc2-2142-4e75-a62d-9fb426418b10
   Joint=918617   CoordSys=GLOBAL   CoordType=Cartesian   XorR=6   Y=1.5   Z=-13.4180229476075   SpecialJt=No   GUID=f6dd6a36-76ff-4529-afba-1ecff3c4a9e4
   Joint=918618   CoordSys=GLOBAL   CoordType=Cartesian   XorR=6   Y=1.5   Z=-16   SpecialJt=No   GUID=528c0588-2884-4447-8137-b4be122aa94a
   Joint=918619   CoordSys=GLOBAL   CoordType=Cartesian   XorR=9   Y=1.5   Z=-13.4180229476075   SpecialJt=No   GUID=8fae592d-675b-4a58-b6c9-af7da45266a7
   Joint=918620   CoordSys=GLOBAL   CoordType=Cartesian   XorR=9   Y=1.5   Z=-16   SpecialJt=No   GUID=60eee8c9-34f3-4170-a563-c25527be3e8f
   Joint=918621   CoordSys=GLOBAL   CoordType=Cartesian   XorR=-9   Y=4.5   Z=-13.4180229476075   SpecialJt=No   GUID=f673e36a-bd87-427f-b06b-660656c0b4fe
   Joint=918622   CoordSys=GLOBAL   CoordType=Cartesian   XorR=-9   Y=4.5   Z=-16   SpecialJt=No   GUID=f89e27b1-8129-4eda-a74d-e17f0d66fbd3
   Joint=918623   CoordSys=GLOBAL   CoordType=Cartesian   XorR=-6   Y=4.5   Z=-13.4180229476075   SpecialJt=No   GUID=e4b898fa-a9d0-4758-ba7c-7d619e359593
   Joint=918624   CoordSys=GLOBAL   CoordType=Cartesian   XorR=-6   Y=4.5   Z=-16   SpecialJt=No   GUID=30d2067c-d046-4814-8c06-1ffddc748711
   Joint=918625   CoordSys=GLOBAL   CoordType=Cartesian   XorR=-3   Y=4.5   Z=-13.4180229476075   SpecialJt=No   GUID=91d78a5d-820f-456b-8346-69bad1cae11c
   Joint=918626   CoordSys=GLOBAL   CoordType=Cartesian   XorR=-3   Y=4.5   Z=-16   SpecialJt=No   GUID=96360d93-3ced-41ec-8ca7-9acc613ee462
   Joint=918627   CoordSys=GLOBAL   CoordType=Cartesian   XorR=0   Y=4.5   Z=-13.4180229476075   SpecialJt=No   GUID=b1113578-9a71-48a2-b206-4d5c243b1285
   Joint=918628   CoordSys=GLOBAL   CoordType=Cartesian   XorR=0   Y=4.5   Z=-16   SpecialJt=No   GUID=e1832501-627c-4330-bca6-a618a2d3da98
   Joint=918629   CoordSys=GLOBAL   CoordType=Cartesian   XorR=3   Y=4.5   Z=-13.4180229476075   SpecialJt=No   GUID=bdcd0050-3360-4de2-acd7-ff07e71a81cc
   Joint=918630   CoordSys=GLOBAL   CoordType=Cartesian   XorR=3   Y=4.5   Z=-16   SpecialJt=No   GUID=7a1c9cb2-8c80-4b88-a89b-962cdc002e36
   Joint=918631   CoordSys=GLOBAL   CoordType=Cartesian   XorR=6   Y=4.5   Z=-13.4180229476075   SpecialJt=No   GUID=542db864-35c9-44a2-abba-c8912803ac25
   Joint=918632   CoordSys=GLOBAL   CoordType=Cartesian   XorR=6   Y=4.5   Z=-16   SpecialJt=No   GUID=9f01d4fb-25fe-48f0-823f-3d2efc5f268e
   Joint=918633   CoordSys=GLOBAL   CoordType=Cartesian   XorR=9   Y=4.5   Z=-13.4180229476075   SpecialJt=No   GUID=5d2d2fba-f9bf-4396-9b4e-391c513ee279
   Joint=918634   CoordSys=GLOBAL   CoordType=Cartesian   XorR=9   Y=4.5   Z=-16   SpecialJt=No   GUID=edd59a59-226c-4314-ab17-a8d149f77067
   Joint=918635   CoordSys=GLOBAL   CoordType=Cartesian   XorR=-10   Y=-5   Z=0   SpecialJt=No   GUID=48551c7c-c419-4902-86df-e17429f4b694
   Joint=918636   CoordSys=GLOBAL   CoordType=Cartesian   XorR=10   Y=-5   Z=0   SpecialJt=No   GUID=aaf6bae0-6b69-47d7-9104-c4a00fb0c503
   Joint=918637   CoordSys=GLOBAL   CoordType=Cartesian   XorR=-10   Y=5   Z=0   SpecialJt=No   GUID=403c5a47-c63b-4383-aeef-ac8f4db1437a
   Joint=918638   CoordSys=GLOBAL   CoordType=Cartesian   XorR=10   Y=5   Z=0   SpecialJt=No   GUID=97e40994-c0f5-4933-9279-ef74af1e5c44
 
TABLE:  "JOINT PATTERN DEFINITIONS"
   Pattern=Default
 
TABLE:  "JOINT RESTRAINT ASSIGNMENTS"
   Joint=918573   U1=Yes   U2=Yes   U3=No   R1=Yes   R2=Yes   R3=Yes
   Joint=918574   U1=No   U2=No   U3=Yes   R1=No   R2=No   R3=No
   Joint=918576   U1=Yes   U2=Yes   U3=No   R1=Yes   R2=Yes   R3=Yes
   Joint=918577   U1=No   U2=No   U3=Yes   R1=No   R2=No   R3=No
   Joint=918579   U1=Yes   U2=Yes   U3=No   R1=Yes   R2=Yes   R3=Yes
   Joint=918580   U1=No   U2=No   U3=Yes   R1=No   R2=No   R3=No
   Joint=918582   U1=Yes   U2=Yes   U3=No   R1=Yes   R2=Yes   R3=Yes
   Joint=918583   U1=No   U2=No   U3=Yes   R1=No   R2=No   R3=No
   Joint=918585   U1=Yes   U2=Yes   U3=No   R1=Yes   R2=Yes   R3=Yes
   Joint=918586   U1=No   U2=No   U3=Yes   R1=No   R2=No   R3=No
   Joint=918588   U1=Yes   U2=Yes   U3=No   R1=Yes   R2=Yes   R3=Yes
   Joint=918589   U1=No   U2=No   U3=Yes   R1=No   R2=No   R3=No
   Joint=918591   U1=Yes   U2=Yes   U3=No   R1=Yes   R2=Yes   R3=Yes
   Joint=918592   U1=No   U2=No   U3=Yes   R1=No   R2=No   R3=No
   Joint=918593   U1=Yes   U2=Yes   U3=No   R1=Yes   R2=Yes   R3=Yes
   Joint=918594   U1=No   U2=No   U3=Yes   R1=No   R2=No   R3=No
   Joint=918595   U1=Yes   U2=Yes   U3=No   R1=Yes   R2=Yes   R3=Yes
   Joint=918596   U1=No   U2=No   U3=Yes   R1=No   R2=No   R3=No
   Joint=918597   U1=Yes   U2=Yes   U3=No   R1=Yes   R2=Yes   R3=Yes
   Joint=918598   U1=No   U2=No   U3=Yes   R1=No   R2=No   R3=No
   Joint=918599   U1=Yes   U2=Yes   U3=No   R1=Yes   R2=Yes   R3=Yes
   Joint=918600   U1=No   U2=No   U3=Yes   R1=No   R2=No   R3=No
   Joint=918601   U1=Yes   U2=Yes   U3=No   R1=Yes   R2=Yes   R3=Yes
   Joint=918602   U1=No   U2=No   U3=Yes   R1=No   R2=No   R3=No
   Joint=918603   U1=Yes   U2=Yes   U3=No   R1=Yes   R2=Yes   R3=Yes
   Joint=918604   U1=No   U2=No   U3=Yes   R1=No   R2=No   R3=No
   Joint=918605   U1=Yes   U2=Yes   U3=No   R1=Yes   R2=Yes   R3=Yes
   Joint=918606   U1=No   U2=No   U3=Yes   R1=No   R2=No   R3=No
   Joint=918607   U1=Yes   U2=Yes   U3=No   R1=Yes   R2=Yes   R3=Yes
   Joint=918608   U1=No   U2=No   U3=Yes   R1=No   R2=No   R3=No
   Joint=918609   U1=Yes   U2=Yes   U3=No   R1=Yes   R2=Yes   R3=Yes
   Joint=918610   U1=No   U2=No   U3=Yes   R1=No   R2=No   R3=No
   Joint=918611   U1=Yes   U2=Yes   U3=No   R1=Yes   R2=Yes   R3=Yes
   Joint=918612   U1=No   U2=No   U3=Yes   R1=No   R2=No   R3=No
   Joint=918613   U1=Yes   U2=Yes   U3=No   R1=Yes   R2=Yes   R3=Yes
   Joint=918614   U1=No   U2=No   U3=Yes   R1=No   R2=No   R3=No
   Joint=918615   U1=Yes   U2=Yes   U3=No   R1=Yes   R2=Yes   R3=Yes
   Joint=918616   U1=No   U2=No   U3=Yes   R1=No   R2=No   R3=No
   Joint=918617   U1=Yes   U2=Yes   U3=No   R1=Yes   R2=Yes   R3=Yes
   Joint=918618   U1=No   U2=No   U3=Yes   R1=No   R2=No   R3=No
# ... 16 like lines cut
 
TABLE:  "LOAD CASE DEFINITIONS"
   Case=DEAD   Type=LinStatic   InitialCond=Zero   DesTypeOpt="Prog Det"   DesignType=Dead   DesActOpt="Prog Det"   DesignAct=Non-Composite   AutoType=None   RunCase=Yes
   Case=MODAL   Type=LinModal   InitialCond=Zero   DesTypeOpt="Prog Det"   DesignType=Other   DesActOpt="Prog Det"   DesignAct=Other   AutoType=None   RunCase=Yes
   Case=LL   Type=LinStatic   InitialCond=Zero   DesTypeOpt="Prog Det"   DesignType=Live   DesActOpt="Prog Det"   DesignAct="Short-Term Composite"   AutoType=None   RunCase=Yes
 
TABLE:  "LOAD PATTERN DEFINITIONS"
   LoadPat=DEAD   DesignType=Dead   SelfWtMult=1
   LoadPat=LL   DesignType=Live   SelfWtMult=0
 
TABLE:  "MASS SOURCE"
   MassSource=MSSSRC1   Elements=Yes   Masses=Yes   Loads=No   IsDefault=Yes
 
TABLE:  "MATERIAL PROPERTIES 01 - GENERAL"
   Material=A706   Type=Rebar   SymType=Uniaxial   TempDepend=No   Color=Gray8Dark   GUID=30185aab-1311-4f4b-9ffe-ddad707d22d9   Notes="ASTM A706 added 8/23/2025 4:27:57 PM"
   Material=BTCT   Type=Concrete   SymType=Isotropic   TempDepend=No   Color=Blue   Notes="Concrete added 24-Feb-23 16:30:01"
   Material=BTCTCOC   Type=Concrete   SymType=Isotropic   TempDepend=No   Color=Blue   Notes="Concrete added 24-Feb-23 16:30:01"
   Material=Steel   Type=Steel   SymType=Isotropic   TempDepend=No   Color=Magenta   GUID=2f952889-4898-4964-97a4-5fb5c5008d33   Notes="Steel added 8/24/2025 2:51:43 PM"
   Material=Tendon   Type=Tendon   SymType=Uniaxial   TempDepend=No   Color=Yellow   GUID=7dfcd093-823e-4b3a-b96f-35d5bcaf456f   Notes="Tendon added 8/24/2025 2:51:43 PM"
 
TABLE:  "MATERIAL PROPERTIES 02 - BASIC MECHANICAL PROPERTIES"
   Material=A706   UnitWeight=7.84904757236607   UnitMass=0.800380070686609   E1=20389019.1580383   A1=1.16999994421006E-05
   Material=BTCT   UnitWeight=2.40276966501002   UnitMass=0.245014307353044   E1=2900000   G12=1208333.33333333   U12=0.2   A1=9.9E-06
   Material=BTCTCOC   UnitWeight=2.40276966501002   UnitMass=0.245014307353044   E1=3800000000   G12=1583333333.33333   U12=0.2   A1=9.9E-06
   Material=Steel   UnitWeight=7.84904757236607   UnitMass=0.800380070686609   E1=20389019.1580383   G12=7841930.44539935   U12=0.3   A1=1.17E-05
   Material=Tendon   UnitWeight=7.84904757236607   UnitMass=0.800380070686609   E1=20037484.3449687   A1=1.16999994421006E-05
 
TABLE:  "MATERIAL PROPERTIES 03A - STEEL DATA"
   Material=Steel   Fy=35153.4813069626   Fu=45699.5256990514   EffFy=38668.8294376589   EffFu=50269.4782689565   SSCurveOpt=Simple   SSHysType=Kinematic   SHard=0.015   SMax=0.11   SRup=0.17   FinalSlope=-0.1   CoupModType="Von Mises"
 
TABLE:  "MATERIAL PROPERTIES 03B - CONCRETE DATA"
   Material=BTCT   Fc=2812.27850455701   eFc=2812.27850455701   LtWtConc=No   SSCurveOpt=Mander   SSHysType=Takeda   SFc=0.002   SCap=0.005   FinalSlope=-0.1   FAngle=0   DAngle=0   CoupModType="Modified Darwin-Pecknold"
   Material=BTCTCOC   Fc=2812.27850455701   eFc=2812.27850455701   LtWtConc=No   SSCurveOpt=Mander   SSHysType=Takeda   SFc=0.002   SCap=0.005   FinalSlope=-0.1   FAngle=0   DAngle=0   CoupModType="Modified Darwin-Pecknold"
 
TABLE:  "MATERIAL PROPERTIES 03E - REBAR DATA"
   Material=A706   Fy=42184.1775683551   Fu=56245.5700911402   EffFy=46402.5953251907   EffFu=61870.1271002542   SSCurveOpt=Simple   SSHysType=Kinematic   SHard=0.011   SCap=0.11   FinalSlope=-0.1   UseCTDef=No   CoupModType="Von Mises"
 
TABLE:  "MATERIAL PROPERTIES 03F - TENDON DATA"
   Material=Tendon   Fy=172322.365366731   Fu=189828.799057598   SSCurveOpt="270 ksi"   SSHysType=Kinematic   FinalSlope=-0.1   CoupModType="Von Mises"
 
TABLE:  "MATERIAL PROPERTIES 03J - COUPLED NONLINEAR VON MISES DATA"
   Material=A706   YieldStress=46402.5953251907   LinIsoHard=No   LinKinHard=No   NLIsoSaHard=No
   Material=Steel   YieldStress=38668.8294376589   LinIsoHard=No   LinKinHard=No   NLIsoSaHard=No
   Material=Tendon   YieldStress=172322.365366731   LinIsoHard=No   LinKinHard=No   NLIsoSaHard=No
 
TABLE:  "MATERIAL PROPERTIES 06 - DAMPING PARAMETERS"
   Material=A706   ModalRatio=0   VisMass=0   VisStiff=0   HysMass=0   HysStiff=0
   Material=BTCT   ModalRatio=0   VisMass=0   VisStiff=0   HysMass=0   HysStiff=0
   Material=BTCTCOC   ModalRatio=0   VisMass=0   VisStiff=0   HysMass=0   HysStiff=0
   Material=Steel   ModalRatio=0   VisMass=0   VisStiff=0   HysMass=0   HysStiff=0
   Material=Tendon   ModalRatio=0   VisMass=0   VisStiff=0   HysMass=0   HysStiff=0
 
TABLE:  "MATERIAL PROPERTIES 09 - ACCEPTANCE CRITERIA"
   Material=A706   IOTens=0.01   LSTens=0.02   CPTens=0.05   IOComp=-0.005   LSComp=-0.01   CPComp=-0.02
   Material=BTCT   IOTens=0.01   LSTens=0.02   CPTens=0.05   IOComp=-0.003   LSComp=-0.006   CPComp=-0.015   IgnoreTens=Yes
   Material=BTCTCOC   IOTens=0.01   LSTens=0.02   CPTens=0.05   IOComp=-0.003   LSComp=-0.006   CPComp=-0.015   IgnoreTens=Yes
   Material=Steel   IOTens=0.01   LSTens=0.02   CPTens=0.05   IOComp=-0.005   LSComp=-0.01   CPComp=-0.02
   Material=Tendon   IOTens=0.015   LSTens=0.023   CPTens=0.03   IOComp=-0.015   LSComp=-0.023   CPComp=-0.03
 
TABLE:  "OPTIONS - COLORS - DISPLAY"
   DeviceType=Screen   Points=Blue   LinesFrame=Blue   LinesFrmDL=Blue   LinesCable=Green   LinesTendon=Green   SpringLinks=Green   Restraints=Green   Releases=Green   Axes=Cyan   Text=Black   ShadowLines=Gray8Dark   GuideLines=Gray8Dark _
        Highlight=Red   Selection=10504778   AreaFillBot=Red   AreaFillTop=16744703   AreaFillSd=Red   AreaEdge=DarkRed   SolidF1=Red   SolidF2=Blue   SolidF3=Green   SolidF4=Yellow   SolidF5=White   SolidF6=Cyan   SolidEdge=DarkRed _
        Floor=Gray4   Background=White   BGLowLeft=White   BGLowRight=White   BGUpRight=White   Darkness=0.5
   DeviceType=Printer   Points=Gray8Dark   LinesFrame=Black   LinesFrmDL=Gray4   LinesCable=Black   LinesTendon=Black   SpringLinks=Gray8Dark   Restraints=Gray8Dark   Releases=Gray4   Axes=Black   Text=Black   ShadowLines=Gray4 _
        GuideLines=Gray4   Highlight=Black   Selection=Black   AreaFillBot=Gray4   AreaFillTop=Gray8Dark   AreaFillSd=Gray4   AreaEdge=Black   SolidF1=Gray1Light   SolidF2=Gray2   SolidF3=Gray3   SolidF4=Gray4   SolidF5=Gray5 _
        SolidF6=Gray6   SolidEdge=Black   Floor=Gray4   Background=White   BGLowLeft=White   BGLowRight=White   BGUpRight=White   Darkness=0.5
   DeviceType="Color Printer"   Points=Blue   LinesFrame=Blue   LinesFrmDL=Blue   LinesCable=Green   LinesTendon=Green   SpringLinks=Green   Restraints=Green   Releases=Green   Axes=Cyan   Text=Black   ShadowLines=Gray8Dark _
        GuideLines=Gray8Dark   Highlight=Red   Selection=10504778   AreaFillBot=Red   AreaFillTop=16744703   AreaFillSd=Red   AreaEdge=DarkRed   SolidF1=Red   SolidF2=Blue   SolidF3=Green   SolidF4=Yellow   SolidF5=White   SolidF6=Cyan _
        SolidEdge=DarkRed   Floor=Gray4   Background=White   BGLowLeft=White   BGLowRight=White   BGUpRight=White   Darkness=0.5
 
TABLE:  "OPTIONS - COLORS - OUTPUT"
   DeviceType=Screen   Contour1=13107400   Contour2=6553828   Contour3=Red   Contour4=16639   Contour5=Orange   Contour6=43775   Contour7=54527   Contour8=Yellow   Contour9=65408   Contour10=Green   Contour11=8453888   Contour12=Cyan _
        Contour13=16755200   Contour14=16733440   Contour15=Blue   Transpare=0.5   Ratio1=Cyan   Ratio2=Green   Ratio3=Yellow   Ratio4=Orange   Ratio5=Red   RatioNotD=Gray4   RatioNotC=Red   RatioVal1=0.5   RatioVal2=0.7   RatioVal3=0.9 _
        RatioVal4=1   DFillPos=Blue   DFillNeg=Red   DFillRPos=Green   DFillRNeg=Green
   DeviceType=Printer   Contour1=Black   Contour2=3158064   Contour3=4210752   Contour4=5263440   Contour5=6316128   Contour6=7368816   Contour7=Gray8Dark   Contour8=Gray7   Contour9=Gray6   Contour10=Gray5   Contour11=Gray4 _
        Contour12=Gray3   Contour13=Gray2   Contour14=Gray1Light   Contour15=White   Transpare=0   Ratio1=Gray2   Ratio2=Gray4   Ratio3=Gray8Dark   Ratio4=4210752   Ratio5=Black   RatioNotD=Gray4   RatioNotC=Black   RatioVal1=0.5 _
        RatioVal2=0.7   RatioVal3=0.9   RatioVal4=1   DFillPos=Gray8Dark   DFillNeg=Gray8Dark   DFillRPos=4210752   DFillRNeg=4210752
   DeviceType="Color Printer"   Contour1=13107400   Contour2=6553828   Contour3=Red   Contour4=16639   Contour5=Orange   Contour6=43775   Contour7=54527   Contour8=Yellow   Contour9=65408   Contour10=Green   Contour11=8453888 _
        Contour12=Cyan   Contour13=16755200   Contour14=16733440   Contour15=Blue   Transpare=0   Ratio1=Cyan   Ratio2=Green   Ratio3=Yellow   Ratio4=Orange   Ratio5=Red   RatioNotD=Gray4   RatioNotC=Red   RatioVal1=0.5   RatioVal2=0.7 _
        RatioVal3=0.9   RatioVal4=1   DFillPos=Blue   DFillNeg=Red   DFillRPos=Green   DFillRNeg=Green
 
TABLE:  "OVERWRITES - CONCRETE DESIGN - CSA-A233-14"
   Frame=1050014   DesignSect="Program Determined"   FrameType="Program Determined"   RLLF=0   XLMajor=0   XLMinor=0   XKMajor=0   XKMinor=0   CmMajor=0   CmMinor=0   DbMajor=0   DbMinor=0   DsMajor=0   DsMinor=0   Rd=0   Ro=0   MaxAggSize=0
   Frame=1050015   DesignSect="Program Determined"   FrameType="Program Determined"   RLLF=0   XLMajor=0   XLMinor=0   XKMajor=0   XKMinor=0   CmMajor=0   CmMinor=0   DbMajor=0   DbMinor=0   DsMajor=0   DsMinor=0   Rd=0   Ro=0   MaxAggSize=0
   Frame=1050016   DesignSect="Program Determined"   FrameType="Program Determined"   RLLF=0   XLMajor=0   XLMinor=0   XKMajor=0   XKMinor=0   CmMajor=0   CmMinor=0   DbMajor=0   DbMinor=0   DsMajor=0   DsMinor=0   Rd=0   Ro=0   MaxAggSize=0
   Frame=1050017   DesignSect="Program Determined"   FrameType="Program Determined"   RLLF=0   XLMajor=0   XLMinor=0   XKMajor=0   XKMinor=0   CmMajor=0   CmMinor=0   DbMajor=0   DbMinor=0   DsMajor=0   DsMinor=0   Rd=0   Ro=0   MaxAggSize=0
   Frame=1050018   DesignSect="Program Determined"   FrameType="Program Determined"   RLLF=0   XLMajor=0   XLMinor=0   XKMajor=0   XKMinor=0   CmMajor=0   CmMinor=0   DbMajor=0   DbMinor=0   DsMajor=0   DsMinor=0   Rd=0   Ro=0   MaxAggSize=0
   Frame=1050019   DesignSect="Program Determined"   FrameType="Program Determined"   RLLF=0   XLMajor=0   XLMinor=0   XKMajor=0   XKMinor=0   CmMajor=0   CmMinor=0   DbMajor=0   DbMinor=0   DsMajor=0   DsMinor=0   Rd=0   Ro=0   MaxAggSize=0
   Frame=1050020   DesignSect="Program Determined"   FrameType="Program Determined"   RLLF=0   XLMajor=0   XLMinor=0   XKMajor=0   XKMinor=0   CmMajor=0   CmMinor=0   DbMajor=0   DbMinor=0   DsMajor=0   DsMinor=0   Rd=0   Ro=0   MaxAggSize=0
   Frame=1050021   DesignSect="Program Determined"   FrameType="Program Determined"   RLLF=0   XLMajor=0   XLMinor=0   XKMajor=0   XKMinor=0   CmMajor=0   CmMinor=0   DbMajor=0   DbMinor=0   DsMajor=0   DsMinor=0   Rd=0   Ro=0   MaxAggSize=0
   Frame=1050022   DesignSect="Program Determined"   FrameType="Program Determined"   RLLF=0   XLMajor=0   XLMinor=0   XKMajor=0   XKMinor=0   CmMajor=0   CmMinor=0   DbMajor=0   DbMinor=0   DsMajor=0   DsMinor=0   Rd=0   Ro=0   MaxAggSize=0
   Frame=1050023   DesignSect="Program Determined"   FrameType="Program Determined"   RLLF=0   XLMajor=0   XLMinor=0   XKMajor=0   XKMinor=0   CmMajor=0   CmMinor=0   DbMajor=0   DbMinor=0   DsMajor=0   DsMinor=0   Rd=0   Ro=0   MaxAggSize=0
   Frame=1050024   DesignSect="Program Determined"   FrameType="Program Determined"   RLLF=0   XLMajor=0   XLMinor=0   XKMajor=0   XKMinor=0   CmMajor=0   CmMinor=0   DbMajor=0   DbMinor=0   DsMajor=0   DsMinor=0   Rd=0   Ro=0   MaxAggSize=0
   Frame=1050025   DesignSect="Program Determined"   FrameType="Program Determined"   RLLF=0   XLMajor=0   XLMinor=0   XKMajor=0   XKMinor=0   CmMajor=0   CmMinor=0   DbMajor=0   DbMinor=0   DsMajor=0   DsMinor=0   Rd=0   Ro=0   MaxAggSize=0
   Frame=1050026   DesignSect="Program Determined"   FrameType="Program Determined"   RLLF=0   XLMajor=0   XLMinor=0   XKMajor=0   XKMinor=0   CmMajor=0   CmMinor=0   DbMajor=0   DbMinor=0   DsMajor=0   DsMinor=0   Rd=0   Ro=0   MaxAggSize=0
   Frame=1050027   DesignSect="Program Determined"   FrameType="Program Determined"   RLLF=0   XLMajor=0   XLMinor=0   XKMajor=0   XKMinor=0   CmMajor=0   CmMinor=0   DbMajor=0   DbMinor=0   DsMajor=0   DsMinor=0   Rd=0   Ro=0   MaxAggSize=0
   Frame=1050028   DesignSect="Program Determined"   FrameType="Program Determined"   RLLF=0   XLMajor=0   XLMinor=0   XKMajor=0   XKMinor=0   CmMajor=0   CmMinor=0   DbMajor=0   DbMinor=0   DsMajor=0   DsMinor=0   Rd=0   Ro=0   MaxAggSize=0
   Frame=1050029   DesignSect="Program Determined"   FrameType="Program Determined"   RLLF=0   XLMajor=0   XLMinor=0   XKMajor=0   XKMinor=0   CmMajor=0   CmMinor=0   DbMajor=0   DbMinor=0   DsMajor=0   DsMinor=0   Rd=0   Ro=0   MaxAggSize=0
   Frame=1050030   DesignSect="Program Determined"   FrameType="Program Determined"   RLLF=0   XLMajor=0   XLMinor=0   XKMajor=0   XKMinor=0   CmMajor=0   CmMinor=0   DbMajor=0   DbMinor=0   DsMajor=0   DsMinor=0   Rd=0   Ro=0   MaxAggSize=0
   Frame=1050031   DesignSect="Program Determined"   FrameType="Program Determined"   RLLF=0   XLMajor=0   XLMinor=0   XKMajor=0   XKMinor=0   CmMajor=0   CmMinor=0   DbMajor=0   DbMinor=0   DsMajor=0   DsMinor=0   Rd=0   Ro=0   MaxAggSize=0
   Frame=1050032   DesignSect="Program Determined"   FrameType="Program Determined"   RLLF=0   XLMajor=0   XLMinor=0   XKMajor=0   XKMinor=0   CmMajor=0   CmMinor=0   DbMajor=0   DbMinor=0   DsMajor=0   DsMinor=0   Rd=0   Ro=0   MaxAggSize=0
   Frame=1050033   DesignSect="Program Determined"   FrameType="Program Determined"   RLLF=0   XLMajor=0   XLMinor=0   XKMajor=0   XKMinor=0   CmMajor=0   CmMinor=0   DbMajor=0   DbMinor=0   DsMajor=0   DsMinor=0   Rd=0   Ro=0   MaxAggSize=0
# ... 60 like lines cut
 
TABLE:  "PREFERENCES - ALUMINUM DESIGN - AA 2015"
   THDesign=Envelopes   SRatioLimit=1   Provision=ASD   LatFact=1.33333333333333   UseLatFact=No   Bridge=No   OmegaTy=1.65   OmegaTr=1.95   OmegaC=1.65   OmegaBo=1.65   OmegaBr=1.95   OmegaVo=1.65   OmegaVr=1.95
 
TABLE:  "PREFERENCES - COLD FORMED DESIGN - AISI-ASD96"
   THDesign=Envelopes   FrameType="Braced Frame"   SRatioLimit=1   MaxIter=1   OmegaBS=1.67   OmegaBUS=1.67   OmegaBLTB=1.67   OmegaVS=1.67   OmegaVNS=1.5   OmegaT=1.67   OmegaC=1.8
 
TABLE:  "PREFERENCES - CONCRETE DESIGN - CSA-A233-14"
   THDesign=Envelopes   NumCurves=24   NumPoints=11   MinEccen=Yes   BCCDesign=Yes   CTorsion=Yes   PatLLF=0.75   UFLimit=0.95   PhiS=0.85   PhiC=0.65
 
TABLE:  "PREFERENCES - CONCRETE SHELL DESIGN - EUROCODE 2-2004"
   Country="CEN Default"   GammaS=1.15   GammaC=1.5   AlphaCC=1
 
TABLE:  "PREFERENCES - DIMENSIONAL"
   MergeTol=0.001   FineGrid=0.25   Nudge=0.25   SelectTol=3   SnapTol=12   SLineThick=1   PLineThick=4   MaxFont=8   MinFont=3   AutoZoom=10   ShrinkFact=70   TextFileLen=240
 
TABLE:  "PREFERENCES - STEEL DESIGN - AISC 360-10"
   THDesign=Envelopes   FrameType=SMF   PatLLF=0.75   SRatioLimit=0.95   MaxIter=1   SDC=D   SeisCode=No   SeisLoad=No   ImpFactor=1   SystemRho=1   SystemSds=0.5   SystemR=8   SystemCd=5.5   Omega0=3   Provision=LRFD _
        AMethod="Direct Analysis"   SOMethod="General 2nd Order"   SRMethod="Tau-b Fixed"   NLCoeff=0.002   PhiB=0.9   PhiC=0.9   PhiTY=0.9   PhiTF=0.75   PhiV=0.9   PhiVRolledI=1   PhiVT=0.9   PlugWeld=Yes   HSSWelding=ERW   HSSReduceT=No _
        CheckDefl=No   DLRat=120   SDLAndLLRat=120   LLRat=360   TotalRat=240   NetRat=240
 
TABLE:  "PROGRAM CONTROL"
   ProgramName=SAP2000   Version=24.0.0   CurrUnits="Tonf, m, C"   SteelCode="AISC 360-10"   ConcCode="CSA A23.3-14"   AlumCode="AA 2015"   ColdCode=AISI-ASD96   RegenHinge=Yes
 
TABLE:  "PROJECT INFORMATION"
   Item="Company Name"   Data=po
   Item="Client Name"
   Item="Project Name"
   Item="Project Number"
   Item="Model Name"
   Item="Model Description"
   Item="Revision Number"
   Item="Frame Type"
   Item=Engineer
   Item=Checker
   Item=Supervisor
   Item="Issue Code"
   Item="Design Code"
 
TABLE:  "REBAR SIZES"
   RebarID=#2   Area=3.2258E-05   Diameter=0.00635
   RebarID=#3   Area=7.09675996154547E-05   Diameter=0.009525
   RebarID=#4   Area=0.000129032001922727   Diameter=0.0127
   RebarID=#5   Area=0.000199999601538181   Diameter=0.015875
   RebarID=#6   Area=0.000283870398461819   Diameter=0.01905
   RebarID=#7   Area=0.000387096015381813   Diameter=0.022225
   RebarID=#8   Area=0.000509676413843632   Diameter=0.0254
   RebarID=#9   Area=0.00064516   Diameter=0.0286512005329132
   RebarID=#10   Area=0.00081935318769455   Diameter=0.0322579995155334
   RebarID=#11   Area=0.00100644956308365   Diameter=0.0358139991521835
   RebarID=#14   Area=0.00145161   Diameter=0.0430021989583969
   RebarID=#18   Area=0.00258064   Diameter=0.0573277992248535
   RebarID=10M   Area=0.000100000004162606   Diameter=0.0113000003604438
   RebarID=15M   Area=0.000200000008325212   Diameter=0.0160000002402959
   RebarID=20M   Area=0.000300000012487818   Diameter=0.0195000002928606
   RebarID=25M   Area=0.000500000020813031   Diameter=0.0252000011414055
   RebarID=30M   Area=0.000700000029138243   Diameter=0.0299000000675832
   RebarID=35M   Area=0.00100000004162606   Diameter=0.0357000012990997
   RebarID=45M   Area=0.00150000006243909   Diameter=0.0437000014192476
   RebarID=55M   Area=0.00250000010406515   Diameter=0.056400002372922
   RebarID=6d   Area=2.83000004150781E-05   Diameter=0.00600000009011096
   RebarID=8d   Area=5.03000013308514E-05   Diameter=0.00800000012014795
   RebarID=10d   Area=7.85000032676458E-05   Diameter=0.0100000001501849
   RebarID=12d   Area=0.000113000004703745   Diameter=0.0120000001802219
   RebarID=14d   Area=0.000154000006410413   Diameter=0.0140000002102589
   RebarID=16d   Area=0.000201000008366838   Diameter=0.0160000002402959
   RebarID=20d   Area=0.000314000013070583   Diameter=0.0200000003003699
   RebarID=25d   Area=0.000491000020438396   Diameter=0.0250000003754623
   RebarID=26d   Area=0.000531000022103439   Diameter=0.0260000003904808
   RebarID=28d   Area=0.000616000025641654   Diameter=0.0280000004205178
   RebarID=N12   Area=0.000113000004703745   Diameter=0.0120000001802219
   RebarID=N16   Area=0.000201000008366838   Diameter=0.0160000002402959
   RebarID=N20   Area=0.000314000013070583   Diameter=0.0200000003003699
   RebarID=N24   Area=0.00045200001881498   Diameter=0.0240000003604438
   RebarID=N28   Area=0.000616000025641654   Diameter=0.0280000004205178
   RebarID=N32   Area=0.000804000033467353   Diameter=0.0320000004805918
   RebarID=N36   Area=0.00102000004245858   Diameter=0.0360000005406658
 
TABLE:  "SOLID PROPERTY DEFINITIONS"
   SolidProp=Solid1   Material=BTCT   MatAngleA=0   MatAngleB=0   MatAngleC=0   InComp=Yes   Color=Gray8Dark
 
END TABLE DATA
