File D:\ResearchLab\02_Projects\02_Projects\Tap chi XD_SFOA\code\SOO_MPJ\MPJ_Sap\MPJ.$2k was saved on m/d/yy at h:mm:ss
 
TABLE:  "ACTIVE DEGREES OF FREEDOM"
   UX=Yes   UY=Yes   UZ=Yes   RX=Yes   RY=Yes   RZ=Yes
 
TABLE:  "ANALYSIS OPTIONS"
   Solver=Advanced   SolverProc=Auto   Force32Bit=No   StiffCase=None   GeomMod=None   HingeOpt="In Elements"   NumAThreads=0   MaxFileSize=0   NumDThreads=0   NumRThreads=0   UseMMFiles="Program Determined"   AllowDiff=No
 
TABLE:  "AREA AUTO MESH ASSIGNMENTS"
   Area=1   MeshType="Number of Elements"   MeshGroup=ALL   Number1=3   Number2=3   LocalEdge=No   LocalFace=No   SuppEdge=No   SuppFace=No   SubMesh=No
   Area=2   MeshType="Number of Elements"   MeshGroup=ALL   Number1=3   Number2=3   LocalEdge=No   LocalFace=No   SuppEdge=No   SuppFace=No   SubMesh=No
   Area=3   MeshType="Number of Elements"   MeshGroup=ALL   Number1=3   Number2=3   LocalEdge=No   LocalFace=No   SuppEdge=No   SuppFace=No   SubMesh=No
   Area=4   MeshType="Number of Elements"   MeshGroup=ALL   Number1=3   Number2=3   LocalEdge=No   LocalFace=No   SuppEdge=No   SuppFace=No   SubMesh=No
   Area=5   MeshType="Number of Elements"   MeshGroup=ALL   Number1=3   Number2=3   LocalEdge=No   LocalFace=No   SuppEdge=No   SuppFace=No   SubMesh=No
   Area=6   MeshType="Number of Elements"   MeshGroup=ALL   Number1=3   Number2=3   LocalEdge=No   LocalFace=No   SuppEdge=No   SuppFace=No   SubMesh=No
   Area=7   MeshType="Number of Elements"   MeshGroup=ALL   Number1=3   Number2=3   LocalEdge=No   LocalFace=No   SuppEdge=No   SuppFace=No   SubMesh=No
   Area=8   MeshType="Number of Elements"   MeshGroup=ALL   Number1=3   Number2=3   LocalEdge=No   LocalFace=No   SuppEdge=No   SuppFace=No   SubMesh=No
   Area=9   MeshType="Number of Elements"   MeshGroup=ALL   Number1=3   Number2=3   LocalEdge=No   LocalFace=No   SuppEdge=No   SuppFace=No   SubMesh=No
   Area=10   MeshType="Number of Elements"   MeshGroup=ALL   Number1=3   Number2=3   LocalEdge=No   LocalFace=No   SuppEdge=No   SuppFace=No   SubMesh=No
   Area=11   MeshType="Number of Elements"   MeshGroup=ALL   Number1=3   Number2=3   LocalEdge=No   LocalFace=No   SuppEdge=No   SuppFace=No   SubMesh=No
   Area=12   MeshType="Number of Elements"   MeshGroup=ALL   Number1=3   Number2=3   LocalEdge=No   LocalFace=No   SuppEdge=No   SuppFace=No   SubMesh=No
   Area=13   MeshType="Number of Elements"   MeshGroup=ALL   Number1=3   Number2=3   LocalEdge=No   LocalFace=No   SuppEdge=No   SuppFace=No   SubMesh=No
   Area=14   MeshType="Number of Elements"   MeshGroup=ALL   Number1=3   Number2=3   LocalEdge=No   LocalFace=No   SuppEdge=No   SuppFace=No   SubMesh=No
   Area=15   MeshType="Number of Elements"   MeshGroup=ALL   Number1=3   Number2=3   LocalEdge=No   LocalFace=No   SuppEdge=No   SuppFace=No   SubMesh=No
   Area=16   MeshType="Number of Elements"   MeshGroup=ALL   Number1=3   Number2=3   LocalEdge=No   LocalFace=No   SuppEdge=No   SuppFace=No   SubMesh=No
   Area=17   MeshType="Number of Elements"   MeshGroup=ALL   Number1=3   Number2=3   LocalEdge=No   LocalFace=No   SuppEdge=No   SuppFace=No   SubMesh=No
   Area=18   MeshType="Number of Elements"   MeshGroup=ALL   Number1=3   Number2=3   LocalEdge=No   LocalFace=No   SuppEdge=No   SuppFace=No   SubMesh=No
   Area=19   MeshType="Number of Elements"   MeshGroup=ALL   Number1=3   Number2=3   LocalEdge=No   LocalFace=No   SuppEdge=No   SuppFace=No   SubMesh=No
   Area=20   MeshType="Number of Elements"   MeshGroup=ALL   Number1=3   Number2=3   LocalEdge=No   LocalFace=No   SuppEdge=No   SuppFace=No   SubMesh=No
# ... 4 like lines cut
 
TABLE:  "AREA LOADS - UNIFORM"
   Area=1   LoadPat=LL   CoordSys=GLOBAL   Dir=Gravity   UnifLoad=1.00034158457019
   Area=2   LoadPat=LL   CoordSys=GLOBAL   Dir=Gravity   UnifLoad=1.00034158457019
   Area=3   LoadPat=LL   CoordSys=GLOBAL   Dir=Gravity   UnifLoad=1.00034158457019
   Area=4   LoadPat=LL   CoordSys=GLOBAL   Dir=Gravity   UnifLoad=1.00034158457019
   Area=5   LoadPat=LL   CoordSys=GLOBAL   Dir=Gravity   UnifLoad=1.00034158457019
   Area=6   LoadPat=LL   CoordSys=GLOBAL   Dir=Gravity   UnifLoad=1.00034158457019
   Area=7   LoadPat=LL   CoordSys=GLOBAL   Dir=Gravity   UnifLoad=1.00034158457019
   Area=8   LoadPat=LL   CoordSys=GLOBAL   Dir=Gravity   UnifLoad=1.00034158457019
   Area=9   LoadPat=LL   CoordSys=GLOBAL   Dir=Gravity   UnifLoad=1.00034158457019
   Area=10   LoadPat=LL   CoordSys=GLOBAL   Dir=Gravity   UnifLoad=1.00034158457019
   Area=11   LoadPat=LL   CoordSys=GLOBAL   Dir=Gravity   UnifLoad=1.00034158457019
   Area=12   LoadPat=LL   CoordSys=GLOBAL   Dir=Gravity   UnifLoad=1.00034158457019
   Area=13   LoadPat=LL   CoordSys=GLOBAL   Dir=Gravity   UnifLoad=1.00034158457019
   Area=14   LoadPat=LL   CoordSys=GLOBAL   Dir=Gravity   UnifLoad=1.00034158457019
   Area=15   LoadPat=LL   CoordSys=GLOBAL   Dir=Gravity   UnifLoad=1.00034158457019
   Area=16   LoadPat=LL   CoordSys=GLOBAL   Dir=Gravity   UnifLoad=1.00034158457019
   Area=17   LoadPat=LL   CoordSys=GLOBAL   Dir=Gravity   UnifLoad=1.00034158457019
   Area=18   LoadPat=LL   CoordSys=GLOBAL   Dir=Gravity   UnifLoad=1.00034158457019
   Area=19   LoadPat=LL   CoordSys=GLOBAL   Dir=Gravity   UnifLoad=1.00034158457019
   Area=20   LoadPat=LL   CoordSys=GLOBAL   Dir=Gravity   UnifLoad=1.00034158457019
# ... 4 like lines cut
 
TABLE:  "AREA SECTION ASSIGNMENTS"
   Area=1   Section=Deck   MatProp=Default
   Area=2   Section=Deck   MatProp=Default
   Area=3   Section=Deck   MatProp=Default
   Area=4   Section=Deck   MatProp=Default
   Area=5   Section=Deck   MatProp=Default
   Area=6   Section=Deck   MatProp=Default
   Area=7   Section=Deck   MatProp=Default
   Area=8   Section=Deck   MatProp=Default
   Area=9   Section=Deck   MatProp=Default
   Area=10   Section=Deck   MatProp=Default
   Area=11   Section=Deck   MatProp=Default
   Area=12   Section=Deck   MatProp=Default
   Area=13   Section=Deck   MatProp=Default
   Area=14   Section=Deck   MatProp=Default
   Area=15   Section=Deck   MatProp=Default
   Area=16   Section=Deck   MatProp=Default
   Area=17   Section=Deck   MatProp=Default
   Area=18   Section=Deck   MatProp=Default
   Area=19   Section=Deck   MatProp=Default
   Area=20   Section=Deck   MatProp=Default
# ... 4 like lines cut
 
TABLE:  "AREA SECTION PROPERTIES"
   Section=Deck   Material=BTCT   MatAngle=0   AreaType=Shell   Type=Shell-Thin   DrillDOF=Yes   Thickness=0.3   BendThick=0.3   Color=Green   F11Mod=1   F22Mod=1   F12Mod=1   M11Mod=1   M22Mod=1   M12Mod=1   V13Mod=1   V23Mod=1   MMod=1 _
        WMod=1   Notes="Added 24-Feb-23 16:56:47"
 
TABLE:  "AREA SECTION PROPERTY DESIGN PARAMETERS"
   Section=Deck   RebarMat=None   RebarOpt=Default
 
TABLE:  "AREA SECTION PROPERTY - TIME DEPENDENT"
   Section=Deck   TypeSize=User   AutoSFSize=1   UserValSize=0.1
 
TABLE:  "AUTO COMBINATION OPTION DATA 01 - GENERAL"
   DesignType=Concrete   AutoGen=Yes
 
TABLE:  "AUTO COMBINATION OPTION DATA 02 - USER DATA"
   DesignType=Concrete   LSType=Strength   LCName=DEAD
   DesignType=Concrete   LSType=Strength   LCName=LL
 
TABLE:  "AUTO WAVE 3 - WAVE CHARACTERISTICS - GENERAL"
   WaveChar=Default   WaveType="From Theory"   KinFactor=1   SWaterDepth=45   WaveHeight=18   WavePeriod=12   WaveTheory=Linear
 
TABLE:  "CASE - MODAL 1 - GENERAL"
   Case=MODAL   ModeType=Eigen   MaxNumModes=12   MinNumModes=1   EigenShift=0   EigenCutoff=0   EigenTol=1E-09   AutoShift=Yes
 
TABLE:  "CASE - STATIC 1 - LOAD ASSIGNMENTS"
   Case=DEAD   LoadType="Load pattern"   LoadName=DEAD   LoadSF=1
   Case=LL   LoadType="Load pattern"   LoadName=LL   LoadSF=1
 
TABLE:  "COMBINATION DEFINITIONS"
   ComboName=COMB1   ComboType="Linear Add"   AutoDesign=No   CaseName=DEAD   ScaleFactor=1   SteelDesign=None   ConcDesign=Strength   AlumDesign=None   ColdDesign=None
   ComboName=COMB2   ComboType="Linear Add"   AutoDesign=No   CaseName=DEAD   ScaleFactor=1   SteelDesign=None   ConcDesign=Strength   AlumDesign=None   ColdDesign=None
   ComboName=COMB2   CaseName=LL   ScaleFactor=1
   ComboName=BAO   ComboType=Envelope   AutoDesign=No   CaseName=COMB1   ScaleFactor=1   SteelDesign=None   ConcDesign=Strength   AlumDesign=None   ColdDesign=None
   ComboName=BAO   CaseName=COMB2   ScaleFactor=1
   ComboName=DCON1   ComboType="Linear Add"   AutoDesign=Yes   CaseName=DEAD   ScaleFactor=1.4   SteelDesign=None   ConcDesign=Strength   AlumDesign=None   ColdDesign=None   GUID=bb4fff9a-98b5-44d1-9fde-34d92700a8e9   Notes="Dead Only; Strength"
   ComboName=DCON2   ComboType="Linear Add"   AutoDesign=Yes   CaseName=DEAD   ScaleFactor=1.25   SteelDesign=None   ConcDesign=Strength   AlumDesign=None   ColdDesign=None   GUID=505bcda7-6fac-4dd0-b03e-c591d1ffc6ce   Notes="Dead + Live; Strength"
   ComboName=DCON2   CaseName=LL   ScaleFactor=1.5
 
TABLE:  "CONNECTIVITY - AREA"
   Area=1   Joint1=67   Joint2=26   Joint3=2   Joint4=1   GUID=3ace990a-eba9-4e52-a0ef-3ae02d08c6a0
   Area=2   Joint1=1   Joint2=2   Joint3=4   Joint4=3   GUID=35195e29-f9a1-494f-97e9-707280ab496d
   Area=3   Joint1=3   Joint2=4   Joint3=6   Joint4=5   GUID=3a79b2cb-043e-4387-bbe9-fd2f76bc7660
   Area=4   Joint1=5   Joint2=6   Joint3=8   Joint4=7   GUID=bb6dc0dd-871b-47af-878c-302dced0be05
   Area=5   Joint1=7   Joint2=8   Joint3=10   Joint4=9   GUID=b4892165-30e2-487f-baf9-bec498f497e6
   Area=6   Joint1=9   Joint2=10   Joint3=29   Joint4=68   GUID=f68b2021-1e7f-40ab-8b75-baaac7f1c90d
   Area=7   Joint1=26   Joint2=27   Joint3=11   Joint4=2   GUID=f761eea3-4c27-4af3-b83c-4fe4a037569c
   Area=8   Joint1=2   Joint2=11   Joint3=12   Joint4=4   GUID=92b76d19-1865-470b-b0cf-b9f4c62943c0
   Area=9   Joint1=4   Joint2=12   Joint3=13   Joint4=6   GUID=a86b7ee5-71f2-4b13-b1bb-fa665298d5a3
   Area=10   Joint1=6   Joint2=13   Joint3=14   Joint4=8   GUID=9aa7e7d0-8edc-44a4-ab13-63a613a65951
   Area=11   Joint1=8   Joint2=14   Joint3=15   Joint4=10   GUID=fa777b97-3f7a-4b33-ac11-444ec9072a06
   Area=12   Joint1=10   Joint2=15   Joint3=30   Joint4=29   GUID=f4730bce-cfbf-4438-abce-84648b915581
   Area=13   Joint1=27   Joint2=28   Joint3=16   Joint4=11   GUID=e604e429-e90c-4788-aacf-adc48da14544
   Area=14   Joint1=11   Joint2=16   Joint3=17   Joint4=12   GUID=8f19b55e-cc25-492e-a664-155bfb05df07
   Area=15   Joint1=12   Joint2=17   Joint3=18   Joint4=13   GUID=af872863-ddae-403b-a72f-95f03aaa1a85
   Area=16   Joint1=13   Joint2=18   Joint3=19   Joint4=14   GUID=9849e3b7-5809-42fb-884c-7c81d4c8160d
   Area=17   Joint1=14   Joint2=19   Joint3=20   Joint4=15   GUID=c169afd0-4567-408d-b18e-bc5b6fa5e138
   Area=18   Joint1=15   Joint2=20   Joint3=31   Joint4=30   GUID=df7a50b1-5c62-4260-a692-0ce090df8bf0
   Area=19   Joint1=28   Joint2=69   Joint3=21   Joint4=16   GUID=b983874b-6f55-457c-99fa-85ba46e92d7c
   Area=20   Joint1=16   Joint2=21   Joint3=22   Joint4=17   GUID=6d402c10-01f2-498a-a8a3-857f7ac6f34f
   Area=21   Joint1=17   Joint2=22   Joint3=23   Joint4=18   GUID=8909d471-df1d-43a2-90a7-da33b014ddd4
   Area=22   Joint1=18   Joint2=23   Joint3=24   Joint4=19   GUID=91bdb96c-5f71-4770-a782-004bac049847
   Area=23   Joint1=19   Joint2=24   Joint3=25   Joint4=20   GUID=757f82fa-cb0b-4c57-82cb-15d71a93fc8f
   Area=24   Joint1=20   Joint2=25   Joint3=70   Joint4=31   GUID=26fe882f-ab45-42dc-9f99-2ac7e2d09325
 
TABLE:  "CONNECTIVITY - FRAME"
   Frame=1   JointI=1   JointJ=2   IsCurved=No   GUID=46a5d20a-13ea-40e8-90c9-882992a502a2
   Frame=2   JointI=3   JointJ=4   IsCurved=No   GUID=e12bb2cc-dfe3-471b-b562-be90710bc8d7
   Frame=3   JointI=5   JointJ=6   IsCurved=No   GUID=d8156c71-8e71-4016-a2de-784498240ae0
   Frame=4   JointI=7   JointJ=8   IsCurved=No   GUID=f731ea6f-7679-4d05-abd5-7acbd9831cb4
   Frame=5   JointI=9   JointJ=10   IsCurved=No   GUID=4c5d9d47-8b4c-4388-82a1-d0bdad11b5f4
   Frame=6   JointI=2   JointJ=11   IsCurved=No   GUID=084b864f-e0db-4f5e-aeef-146e14186711
   Frame=7   JointI=4   JointJ=12   IsCurved=No   GUID=cab666dc-130d-415a-9e6f-1edd8998f96f
   Frame=8   JointI=6   JointJ=13   IsCurved=No   GUID=414a1463-ed10-44d9-81e8-418ea42159a1
   Frame=9   JointI=8   JointJ=14   IsCurved=No   GUID=4bc7dd0b-4a73-4a9c-ab8d-a38dac8f368d
   Frame=10   JointI=10   JointJ=15   IsCurved=No   GUID=17c6e932-4d3f-4eb6-af86-1eb468000a9d
   Frame=11   JointI=11   JointJ=16   IsCurved=No   GUID=6bb770e4-cfd0-4394-80f4-49912feaff27
   Frame=12   JointI=12   JointJ=17   IsCurved=No   GUID=dafc432a-d0bf-461d-ad3e-1e535bca087c
   Frame=13   JointI=13   JointJ=18   IsCurved=No   GUID=0ea70475-ae0a-407f-858c-2718ced5942b
   Frame=14   JointI=14   JointJ=19   IsCurved=No   GUID=1b010fa5-1a4e-4024-a654-f321e6e62cb8
   Frame=15   JointI=15   JointJ=20   IsCurved=No   GUID=35e516d0-8831-4fc2-af7e-69fa7b450e54
   Frame=16   JointI=16   JointJ=21   IsCurved=No   GUID=aaf0bc11-d1cd-4057-bc7d-0032f61df69d
   Frame=17   JointI=17   JointJ=22   IsCurved=No   GUID=5384ed19-6ef8-4b1f-b5ad-62bebb9001c7
   Frame=18   JointI=18   JointJ=23   IsCurved=No   GUID=dd2e30a8-6820-4900-882a-dd19d4ed31a0
   Frame=19   JointI=19   JointJ=24   IsCurved=No   GUID=605788dc-4e32-4727-bf4b-b0007781bb56
   Frame=20   JointI=20   JointJ=25   IsCurved=No   GUID=608ac8c7-833b-41c6-8f89-927ed15c2cce
   Frame=21   JointI=26   JointJ=2   IsCurved=No   GUID=4cec69f5-869b-4383-a483-f9d0a084872b
   Frame=22   JointI=27   JointJ=11   IsCurved=No   GUID=4dbf4ce8-59de-4900-9c25-18229b1a8286
   Frame=23   JointI=28   JointJ=16   IsCurved=No   GUID=9ab472f9-9d7b-4614-94b0-052847a0b162
   Frame=24   JointI=2   JointJ=4   IsCurved=No   GUID=e1fccfba-34ee-4cd8-be29-6a253281f991
   Frame=25   JointI=11   JointJ=12   IsCurved=No   GUID=943d4326-bd0b-4382-8382-90fff15e8e5c
   Frame=26   JointI=16   JointJ=17   IsCurved=No   GUID=b4777ff7-b27a-4b4e-831d-ef20a3b166b5
   Frame=27   JointI=4   JointJ=6   IsCurved=No   GUID=867b7021-39b8-4d6d-8b6e-03a616c16359
   Frame=28   JointI=12   JointJ=13   IsCurved=No   GUID=e71eb0f9-5b35-45d5-8df8-2bcb7ed94b6a
   Frame=29   JointI=17   JointJ=18   IsCurved=No   GUID=0238029a-9fb5-4f07-a125-dae560db9602
   Frame=30   JointI=6   JointJ=8   IsCurved=No   GUID=fcead12f-9c14-4716-b39f-2b097a25a5f8
   Frame=31   JointI=13   JointJ=14   IsCurved=No   GUID=0cdd9a60-91ee-4130-b18d-0eca3ccded09
   Frame=32   JointI=18   JointJ=19   IsCurved=No   GUID=6267392d-e605-4ea1-b686-16c8da7fe0df
   Frame=33   JointI=8   JointJ=10   IsCurved=No   GUID=3b2756da-e5a6-4a43-a886-ba3415efdb04
   Frame=34   JointI=14   JointJ=15   IsCurved=No   GUID=43cb6799-efae-4e62-875b-7f858558b8a8
   Frame=35   JointI=19   JointJ=20   IsCurved=No   GUID=6f4730a3-bdac-41d5-9d66-5f09710ad94a
   Frame=36   JointI=10   JointJ=29   IsCurved=No   GUID=34cd3e88-fb15-4479-a719-bbae55f8784f
   Frame=37   JointI=15   JointJ=30   IsCurved=No   GUID=93af01e7-50d3-41b1-bb96-e96db24e2fd1
   Frame=38   JointI=20   JointJ=31   IsCurved=No   GUID=551e9640-a461-40ac-b9e5-84e02bb3226b
   Frame=39   JointI=2   JointJ=32   IsCurved=No   GUID=91b45175-8752-463a-9639-af0e090975f1
   Frame=40   JointI=32   JointJ=33   IsCurved=No   GUID=592b498d-887f-45d0-8ceb-92e21b35409f
   Frame=41   JointI=33   JointJ=34   IsCurved=No   GUID=9423a49c-5516-46ef-97fd-451a662dd280
   Frame=42   JointI=4   JointJ=35   IsCurved=No   GUID=918970fe-027d-4960-b77e-8f87a51758c1
   Frame=43   JointI=35   JointJ=36   IsCurved=No   GUID=3774b7fb-3d66-438f-a161-1d3a0b4449a2
   Frame=44   JointI=36   JointJ=37   IsCurved=No   GUID=9e8c48c4-9be3-43e1-afe6-95441371dca5
   Frame=45   JointI=6   JointJ=38   IsCurved=No   GUID=0556bb27-58ed-4a7b-bb54-46453e97158a
   Frame=46   JointI=38   JointJ=39   IsCurved=No   GUID=12a8926e-6b98-477a-855a-a4d2635ef4c8
   Frame=47   JointI=39   JointJ=40   IsCurved=No   GUID=7ccab3ea-3e94-4a7a-9057-d9e22ceadde0
   Frame=48   JointI=8   JointJ=41   IsCurved=No   GUID=b8672ac4-d851-4824-8222-5cf571013b02
   Frame=49   JointI=41   JointJ=42   IsCurved=No   GUID=099b27b8-7319-4062-b56e-ece7b04e9040
   Frame=50   JointI=42   JointJ=43   IsCurved=No   GUID=5cf2f693-b890-4e95-af4f-7ec19d3e00a8
   Frame=51   JointI=10   JointJ=44   IsCurved=No   GUID=093a0ec6-d433-4289-82ae-0dea49b8f99e
   Frame=52   JointI=44   JointJ=45   IsCurved=No   GUID=ef526af9-8011-4cec-a3db-d65c4b32fe95
   Frame=53   JointI=45   JointJ=46   IsCurved=No   GUID=f6c8feb4-c345-4da5-bb83-c3bb0021e416
   Frame=54   JointI=11   JointJ=47   IsCurved=No   GUID=e8a4ba6e-23b0-4237-8314-4410e5832ede
   Frame=55   JointI=47   JointJ=48   IsCurved=No   GUID=7855548d-a59f-4ade-b853-26000271ecf8
   Frame=56   JointI=12   JointJ=49   IsCurved=No   GUID=27c4ae91-6492-458c-bc80-3c9883e30ebc
   Frame=57   JointI=49   JointJ=50   IsCurved=No   GUID=cc73ff38-441e-4685-8c85-218996a0bf28
   Frame=58   JointI=13   JointJ=51   IsCurved=No   GUID=25fb47f9-651d-424f-8434-7f12ee88ee75
   Frame=59   JointI=51   JointJ=52   IsCurved=No   GUID=28e9b948-3d6b-4819-ac19-a1fb3ff0f87e
   Frame=60   JointI=14   JointJ=53   IsCurved=No   GUID=9f862ee7-be39-4051-870a-505dbfdcc06b
   Frame=61   JointI=53   JointJ=54   IsCurved=No   GUID=949f124a-7e9c-41df-b04f-fdbfa0040e46
   Frame=62   JointI=15   JointJ=55   IsCurved=No   GUID=565bd743-5369-4203-b6e4-f8ba4042e9e6
   Frame=63   JointI=55   JointJ=56   IsCurved=No   GUID=64a9e902-6af4-4a02-abd7-b023ab787564
   Frame=64   JointI=16   JointJ=57   IsCurved=No   GUID=a67f74a1-652b-4b6a-8a6a-84e0273d640a
   Frame=65   JointI=57   JointJ=58   IsCurved=No   GUID=5598f406-bc9f-492b-a8f7-f2e002418a31
   Frame=66   JointI=17   JointJ=59   IsCurved=No   GUID=745db453-8903-4f70-b641-7f025edfb66d
   Frame=67   JointI=59   JointJ=60   IsCurved=No   GUID=45769a05-75b9-47d3-b441-5f922301b330
   Frame=68   JointI=18   JointJ=61   IsCurved=No   GUID=de177860-7e57-4bb5-bb7e-bc4f7eab4115
   Frame=69   JointI=61   JointJ=62   IsCurved=No   GUID=d03695af-aa90-4248-9c51-f50b22583958
   Frame=70   JointI=19   JointJ=63   IsCurved=No   GUID=02b4422f-3c64-463e-9047-c369c5d622e2
   Frame=71   JointI=63   JointJ=64   IsCurved=No   GUID=4ab2bbef-ea8e-42db-ad42-9c134213ca78
   Frame=72   JointI=20   JointJ=65   IsCurved=No   GUID=b1563a13-3736-48b7-8295-29a31a472223
   Frame=73   JointI=65   JointJ=66   IsCurved=No   GUID=6bc46c74-1ecf-4902-9aa3-99d4c749b4b6
   Frame=74   JointI=32   JointJ=35   IsCurved=No   GUID=d2550153-645c-49bb-9c47-3ddf1696029c
   Frame=75   JointI=35   JointJ=38   IsCurved=No   GUID=1b18f38c-9ae9-4dca-9074-f9bc76c5ab0d
   Frame=76   JointI=38   JointJ=41   IsCurved=No   GUID=9daf0e4c-257b-4997-b269-3c43dc328732
   Frame=77   JointI=41   JointJ=44   IsCurved=No   GUID=197ca4f1-1aac-4b1b-b36a-0e5a11a97d4f
 
TABLE:  "COORDINATE SYSTEMS"
   Name=GLOBAL   Type=Cartesian   X=0   Y=0   Z=0   AboutZ=0   AboutY=0   AboutX=0
 
TABLE:  "DATABASE DOCUMENTATION"
 
TABLE:  "DATABASE FORMAT TYPES"
   UnitsCurr=Yes   OverrideE=No
 
TABLE:  "FRAME AUTO MESH ASSIGNMENTS"
   Frame=1   AutoMesh=Yes   AtJoints=Yes   AtFrames=No   NumSegments=0   MaxLength=0   MaxDegrees=0
   Frame=2   AutoMesh=Yes   AtJoints=Yes   AtFrames=No   NumSegments=0   MaxLength=0   MaxDegrees=0
   Frame=3   AutoMesh=Yes   AtJoints=Yes   AtFrames=No   NumSegments=0   MaxLength=0   MaxDegrees=0
   Frame=4   AutoMesh=Yes   AtJoints=Yes   AtFrames=No   NumSegments=0   MaxLength=0   MaxDegrees=0
   Frame=5   AutoMesh=Yes   AtJoints=Yes   AtFrames=No   NumSegments=0   MaxLength=0   MaxDegrees=0
   Frame=6   AutoMesh=Yes   AtJoints=Yes   AtFrames=No   NumSegments=0   MaxLength=0   MaxDegrees=0
   Frame=7   AutoMesh=Yes   AtJoints=Yes   AtFrames=No   NumSegments=0   MaxLength=0   MaxDegrees=0
   Frame=8   AutoMesh=Yes   AtJoints=Yes   AtFrames=No   NumSegments=0   MaxLength=0   MaxDegrees=0
   Frame=9   AutoMesh=Yes   AtJoints=Yes   AtFrames=No   NumSegments=0   MaxLength=0   MaxDegrees=0
   Frame=10   AutoMesh=Yes   AtJoints=Yes   AtFrames=No   NumSegments=0   MaxLength=0   MaxDegrees=0
   Frame=11   AutoMesh=Yes   AtJoints=Yes   AtFrames=No   NumSegments=0   MaxLength=0   MaxDegrees=0
   Frame=12   AutoMesh=Yes   AtJoints=Yes   AtFrames=No   NumSegments=0   MaxLength=0   MaxDegrees=0
   Frame=13   AutoMesh=Yes   AtJoints=Yes   AtFrames=No   NumSegments=0   MaxLength=0   MaxDegrees=0
   Frame=14   AutoMesh=Yes   AtJoints=Yes   AtFrames=No   NumSegments=0   MaxLength=0   MaxDegrees=0
   Frame=15   AutoMesh=Yes   AtJoints=Yes   AtFrames=No   NumSegments=0   MaxLength=0   MaxDegrees=0
   Frame=16   AutoMesh=Yes   AtJoints=Yes   AtFrames=No   NumSegments=0   MaxLength=0   MaxDegrees=0
   Frame=17   AutoMesh=Yes   AtJoints=Yes   AtFrames=No   NumSegments=0   MaxLength=0   MaxDegrees=0
   Frame=18   AutoMesh=Yes   AtJoints=Yes   AtFrames=No   NumSegments=0   MaxLength=0   MaxDegrees=0
   Frame=19   AutoMesh=Yes   AtJoints=Yes   AtFrames=No   NumSegments=0   MaxLength=0   MaxDegrees=0
   Frame=20   AutoMesh=Yes   AtJoints=Yes   AtFrames=No   NumSegments=0   MaxLength=0   MaxDegrees=0
# ... 57 like lines cut
 
TABLE:  "FRAME DESIGN PROCEDURES"
   Frame=1   DesignProc="From Material"
   Frame=2   DesignProc="From Material"
   Frame=3   DesignProc="From Material"
   Frame=4   DesignProc="From Material"
   Frame=5   DesignProc="From Material"
   Frame=6   DesignProc="From Material"
   Frame=7   DesignProc="From Material"
   Frame=8   DesignProc="From Material"
   Frame=9   DesignProc="From Material"
   Frame=10   DesignProc="From Material"
   Frame=11   DesignProc="From Material"
   Frame=12   DesignProc="From Material"
   Frame=13   DesignProc="From Material"
   Frame=14   DesignProc="From Material"
   Frame=15   DesignProc="From Material"
   Frame=16   DesignProc="From Material"
   Frame=17   DesignProc="From Material"
   Frame=18   DesignProc="From Material"
   Frame=19   DesignProc="From Material"
   Frame=20   DesignProc="From Material"
# ... 19 like lines cut
   Frame=40   DesignProc="No Design"
   Frame=41   DesignProc="No Design"
   Frame=42   DesignProc="From Material"
   Frame=43   DesignProc="No Design"
   Frame=44   DesignProc="No Design"
   Frame=45   DesignProc="From Material"
   Frame=46   DesignProc="No Design"
   Frame=47   DesignProc="No Design"
   Frame=48   DesignProc="From Material"
   Frame=49   DesignProc="No Design"
   Frame=50   DesignProc="No Design"
   Frame=51   DesignProc="From Material"
   Frame=52   DesignProc="No Design"
   Frame=53   DesignProc="No Design"
   Frame=54   DesignProc="No Design"
   Frame=55   DesignProc="No Design"
   Frame=56   DesignProc="No Design"
   Frame=57   DesignProc="No Design"
   Frame=58   DesignProc="No Design"
   Frame=59   DesignProc="No Design"
   Frame=60   DesignProc="No Design"
   Frame=61   DesignProc="No Design"
   Frame=62   DesignProc="No Design"
   Frame=63   DesignProc="No Design"
   Frame=64   DesignProc="No Design"
   Frame=65   DesignProc="No Design"
   Frame=66   DesignProc="No Design"
   Frame=67   DesignProc="No Design"
   Frame=68   DesignProc="No Design"
   Frame=69   DesignProc="No Design"
   Frame=70   DesignProc="No Design"
   Frame=71   DesignProc="No Design"
   Frame=72   DesignProc="No Design"
   Frame=73   DesignProc="No Design"
   Frame=74   DesignProc="From Material"
   Frame=75   DesignProc="From Material"
   Frame=76   DesignProc="From Material"
   Frame=77   DesignProc="From Material"
 
TABLE:  "FRAME LOAD TRANSFER OPTIONS"
   Frame=1   Transfer=Yes
   Frame=2   Transfer=Yes
   Frame=3   Transfer=Yes
   Frame=4   Transfer=Yes
   Frame=5   Transfer=Yes
   Frame=6   Transfer=Yes
   Frame=7   Transfer=Yes
   Frame=8   Transfer=Yes
   Frame=9   Transfer=Yes
   Frame=10   Transfer=Yes
   Frame=11   Transfer=Yes
   Frame=12   Transfer=Yes
   Frame=13   Transfer=Yes
   Frame=14   Transfer=Yes
   Frame=15   Transfer=Yes
   Frame=16   Transfer=Yes
   Frame=17   Transfer=Yes
   Frame=18   Transfer=Yes
   Frame=19   Transfer=Yes
   Frame=20   Transfer=Yes
# ... 57 like lines cut
 
TABLE:  "FRAME LOCAL AXES ASSIGNMENTS 1 - TYPICAL"
   Frame=39   Angle=90
   Frame=42   Angle=90
   Frame=45   Angle=90
   Frame=48   Angle=90
   Frame=51   Angle=90
 
TABLE:  "FRAME OUTPUT STATION ASSIGNMENTS"
   Frame=1   StationType=MaxStaSpcg   MaxStaSpcg=0.5   AddAtElmInt=Yes   AddAtPtLoad=Yes
   Frame=2   StationType=MaxStaSpcg   MaxStaSpcg=0.5   AddAtElmInt=Yes   AddAtPtLoad=Yes
   Frame=3   StationType=MaxStaSpcg   MaxStaSpcg=0.5   AddAtElmInt=Yes   AddAtPtLoad=Yes
   Frame=4   StationType=MaxStaSpcg   MaxStaSpcg=0.5   AddAtElmInt=Yes   AddAtPtLoad=Yes
   Frame=5   StationType=MaxStaSpcg   MaxStaSpcg=0.5   AddAtElmInt=Yes   AddAtPtLoad=Yes
   Frame=6   StationType=MaxStaSpcg   MaxStaSpcg=0.5   AddAtElmInt=Yes   AddAtPtLoad=Yes
   Frame=7   StationType=MaxStaSpcg   MaxStaSpcg=0.5   AddAtElmInt=Yes   AddAtPtLoad=Yes
   Frame=8   StationType=MaxStaSpcg   MaxStaSpcg=0.5   AddAtElmInt=Yes   AddAtPtLoad=Yes
   Frame=9   StationType=MaxStaSpcg   MaxStaSpcg=0.5   AddAtElmInt=Yes   AddAtPtLoad=Yes
   Frame=10   StationType=MaxStaSpcg   MaxStaSpcg=0.5   AddAtElmInt=Yes   AddAtPtLoad=Yes
   Frame=11   StationType=MaxStaSpcg   MaxStaSpcg=0.5   AddAtElmInt=Yes   AddAtPtLoad=Yes
   Frame=12   StationType=MaxStaSpcg   MaxStaSpcg=0.5   AddAtElmInt=Yes   AddAtPtLoad=Yes
   Frame=13   StationType=MaxStaSpcg   MaxStaSpcg=0.5   AddAtElmInt=Yes   AddAtPtLoad=Yes
   Frame=14   StationType=MaxStaSpcg   MaxStaSpcg=0.5   AddAtElmInt=Yes   AddAtPtLoad=Yes
   Frame=15   StationType=MaxStaSpcg   MaxStaSpcg=0.5   AddAtElmInt=Yes   AddAtPtLoad=Yes
   Frame=16   StationType=MaxStaSpcg   MaxStaSpcg=0.5   AddAtElmInt=Yes   AddAtPtLoad=Yes
   Frame=17   StationType=MaxStaSpcg   MaxStaSpcg=0.5   AddAtElmInt=Yes   AddAtPtLoad=Yes
   Frame=18   StationType=MaxStaSpcg   MaxStaSpcg=0.5   AddAtElmInt=Yes   AddAtPtLoad=Yes
   Frame=19   StationType=MaxStaSpcg   MaxStaSpcg=0.5   AddAtElmInt=Yes   AddAtPtLoad=Yes
   Frame=20   StationType=MaxStaSpcg   MaxStaSpcg=0.5   AddAtElmInt=Yes   AddAtPtLoad=Yes
# ... 18 like lines cut
   Frame=39   StationType=MinNumSta   MinNumSta=3   AddAtElmInt=Yes   AddAtPtLoad=Yes
   Frame=40   StationType=MinNumSta   MinNumSta=3   AddAtElmInt=Yes   AddAtPtLoad=Yes
   Frame=41   StationType=MinNumSta   MinNumSta=3   AddAtElmInt=Yes   AddAtPtLoad=Yes
   Frame=42   StationType=MinNumSta   MinNumSta=3   AddAtElmInt=Yes   AddAtPtLoad=Yes
   Frame=43   StationType=MinNumSta   MinNumSta=3   AddAtElmInt=Yes   AddAtPtLoad=Yes
   Frame=44   StationType=MinNumSta   MinNumSta=3   AddAtElmInt=Yes   AddAtPtLoad=Yes
   Frame=45   StationType=MinNumSta   MinNumSta=3   AddAtElmInt=Yes   AddAtPtLoad=Yes
   Frame=46   StationType=MinNumSta   MinNumSta=3   AddAtElmInt=Yes   AddAtPtLoad=Yes
   Frame=47   StationType=MinNumSta   MinNumSta=3   AddAtElmInt=Yes   AddAtPtLoad=Yes
   Frame=48   StationType=MinNumSta   MinNumSta=3   AddAtElmInt=Yes   AddAtPtLoad=Yes
   Frame=49   StationType=MinNumSta   MinNumSta=3   AddAtElmInt=Yes   AddAtPtLoad=Yes
   Frame=50   StationType=MinNumSta   MinNumSta=3   AddAtElmInt=Yes   AddAtPtLoad=Yes
   Frame=51   StationType=MinNumSta   MinNumSta=3   AddAtElmInt=Yes   AddAtPtLoad=Yes
   Frame=52   StationType=MinNumSta   MinNumSta=3   AddAtElmInt=Yes   AddAtPtLoad=Yes
   Frame=53   StationType=MinNumSta   MinNumSta=3   AddAtElmInt=Yes   AddAtPtLoad=Yes
   Frame=54   StationType=MinNumSta   MinNumSta=3   AddAtElmInt=Yes   AddAtPtLoad=Yes
   Frame=55   StationType=MinNumSta   MinNumSta=3   AddAtElmInt=Yes   AddAtPtLoad=Yes
   Frame=56   StationType=MinNumSta   MinNumSta=3   AddAtElmInt=Yes   AddAtPtLoad=Yes
   Frame=57   StationType=MinNumSta   MinNumSta=3   AddAtElmInt=Yes   AddAtPtLoad=Yes
   Frame=58   StationType=MinNumSta   MinNumSta=3   AddAtElmInt=Yes   AddAtPtLoad=Yes
# ... 15 like lines cut
   Frame=74   StationType=MaxStaSpcg   MaxStaSpcg=0.5   AddAtElmInt=Yes   AddAtPtLoad=Yes
   Frame=75   StationType=MaxStaSpcg   MaxStaSpcg=0.5   AddAtElmInt=Yes   AddAtPtLoad=Yes
   Frame=76   StationType=MaxStaSpcg   MaxStaSpcg=0.5   AddAtElmInt=Yes   AddAtPtLoad=Yes
   Frame=77   StationType=MaxStaSpcg   MaxStaSpcg=0.5   AddAtElmInt=Yes   AddAtPtLoad=Yes
 
TABLE:  "FRAME SECTION ASSIGNMENTS"
   Frame=1   AutoSelect=N.A.   AnalSect=TB   MatProp=Default
   Frame=2   AutoSelect=N.A.   AnalSect=TB   MatProp=Default
   Frame=3   AutoSelect=N.A.   AnalSect=TB   MatProp=Default
   Frame=4   AutoSelect=N.A.   AnalSect=TB   MatProp=Default
   Frame=5   AutoSelect=N.A.   AnalSect=TB   MatProp=Default
   Frame=6   AutoSelect=N.A.   AnalSect=TB   MatProp=Default
   Frame=7   AutoSelect=N.A.   AnalSect=TB   MatProp=Default
   Frame=8   AutoSelect=N.A.   AnalSect=TB   MatProp=Default
   Frame=9   AutoSelect=N.A.   AnalSect=TB   MatProp=Default
   Frame=10   AutoSelect=N.A.   AnalSect=TB   MatProp=Default
   Frame=11   AutoSelect=N.A.   AnalSect=TB   MatProp=Default
   Frame=12   AutoSelect=N.A.   AnalSect=TB   MatProp=Default
   Frame=13   AutoSelect=N.A.   AnalSect=TB   MatProp=Default
   Frame=14   AutoSelect=N.A.   AnalSect=TB   MatProp=Default
   Frame=15   AutoSelect=N.A.   AnalSect=TB   MatProp=Default
   Frame=16   AutoSelect=N.A.   AnalSect=TB   MatProp=Default
   Frame=17   AutoSelect=N.A.   AnalSect=TB   MatProp=Default
   Frame=18   AutoSelect=N.A.   AnalSect=TB   MatProp=Default
   Frame=19   AutoSelect=N.A.   AnalSect=TB   MatProp=Default
   Frame=20   AutoSelect=N.A.   AnalSect=TB   MatProp=Default
   Frame=21   AutoSelect=N.A.   AnalSect=LB   MatProp=Default
   Frame=22   AutoSelect=N.A.   AnalSect=LB   MatProp=Default
   Frame=23   AutoSelect=N.A.   AnalSect=LB   MatProp=Default
   Frame=24   AutoSelect=N.A.   AnalSect=LB   MatProp=Default
   Frame=25   AutoSelect=N.A.   AnalSect=LB   MatProp=Default
   Frame=26   AutoSelect=N.A.   AnalSect=LB   MatProp=Default
   Frame=27   AutoSelect=N.A.   AnalSect=LB   MatProp=Default
   Frame=28   AutoSelect=N.A.   AnalSect=LB   MatProp=Default
   Frame=29   AutoSelect=N.A.   AnalSect=LB   MatProp=Default
   Frame=30   AutoSelect=N.A.   AnalSect=LB   MatProp=Default
   Frame=31   AutoSelect=N.A.   AnalSect=LB   MatProp=Default
   Frame=32   AutoSelect=N.A.   AnalSect=LB   MatProp=Default
   Frame=33   AutoSelect=N.A.   AnalSect=LB   MatProp=Default
   Frame=34   AutoSelect=N.A.   AnalSect=LB   MatProp=Default
   Frame=35   AutoSelect=N.A.   AnalSect=LB   MatProp=Default
   Frame=36   AutoSelect=N.A.   AnalSect=LB   MatProp=Default
   Frame=37   AutoSelect=N.A.   AnalSect=LB   MatProp=Default
   Frame=38   AutoSelect=N.A.   AnalSect=LB   MatProp=Default
   Frame=39   AutoSelect=N.A.   AnalSect=EB   MatProp=Default
   Frame=40   AutoSelect=N.A.   AnalSect=Piles   MatProp=Default
   Frame=41   AutoSelect=N.A.   AnalSect=Piles   MatProp=Default
   Frame=42   AutoSelect=N.A.   AnalSect=EB   MatProp=Default
   Frame=43   AutoSelect=N.A.   AnalSect=Piles   MatProp=Default
   Frame=44   AutoSelect=N.A.   AnalSect=Piles   MatProp=Default
   Frame=45   AutoSelect=N.A.   AnalSect=EB   MatProp=Default
   Frame=46   AutoSelect=N.A.   AnalSect=Piles   MatProp=Default
   Frame=47   AutoSelect=N.A.   AnalSect=Piles   MatProp=Default
   Frame=48   AutoSelect=N.A.   AnalSect=EB   MatProp=Default
   Frame=49   AutoSelect=N.A.   AnalSect=Piles   MatProp=Default
   Frame=50   AutoSelect=N.A.   AnalSect=Piles   MatProp=Default
   Frame=51   AutoSelect=N.A.   AnalSect=EB   MatProp=Default
   Frame=52   AutoSelect=N.A.   AnalSect=Piles   MatProp=Default
   Frame=53   AutoSelect=N.A.   AnalSect=Piles   MatProp=Default
   Frame=54   AutoSelect=N.A.   AnalSect=Piles   MatProp=Default
   Frame=55   AutoSelect=N.A.   AnalSect=Piles   MatProp=Default
   Frame=56   AutoSelect=N.A.   AnalSect=Piles   MatProp=Default
   Frame=57   AutoSelect=N.A.   AnalSect=Piles   MatProp=Default
   Frame=58   AutoSelect=N.A.   AnalSect=Piles   MatProp=Default
   Frame=59   AutoSelect=N.A.   AnalSect=Piles   MatProp=Default
   Frame=60   AutoSelect=N.A.   AnalSect=Piles   MatProp=Default
   Frame=61   AutoSelect=N.A.   AnalSect=Piles   MatProp=Default
   Frame=62   AutoSelect=N.A.   AnalSect=Piles   MatProp=Default
   Frame=63   AutoSelect=N.A.   AnalSect=Piles   MatProp=Default
   Frame=64   AutoSelect=N.A.   AnalSect=Piles   MatProp=Default
   Frame=65   AutoSelect=N.A.   AnalSect=Piles   MatProp=Default
   Frame=66   AutoSelect=N.A.   AnalSect=Piles   MatProp=Default
   Frame=67   AutoSelect=N.A.   AnalSect=Piles   MatProp=Default
   Frame=68   AutoSelect=N.A.   AnalSect=Piles   MatProp=Default
   Frame=69   AutoSelect=N.A.   AnalSect=Piles   MatProp=Default
   Frame=70   AutoSelect=N.A.   AnalSect=Piles   MatProp=Default
   Frame=71   AutoSelect=N.A.   AnalSect=Piles   MatProp=Default
   Frame=72   AutoSelect=N.A.   AnalSect=Piles   MatProp=Default
   Frame=73   AutoSelect=N.A.   AnalSect=Piles   MatProp=Default
   Frame=74   AutoSelect=N.A.   AnalSect=EB-1   MatProp=Default
   Frame=75   AutoSelect=N.A.   AnalSect=EB-1   MatProp=Default
   Frame=76   AutoSelect=N.A.   AnalSect=EB-1   MatProp=Default
   Frame=77   AutoSelect=N.A.   AnalSect=EB-1   MatProp=Default
 
TABLE:  "FRAME SECTION PROPERTIES 01 - GENERAL"
   SectionName=EB   Material=BTCT   Shape=Rectangular   t3=1.2   t2=1   Area=1.2   TorsConst=0.198439429012346   I33=0.144   I22=0.1   I23=0   AS2=1   AS3=1   S33Top=0.24   S33Bot=0.24   S22Left=0.2   S22Right=0.2   Z33=0.36   Z22=0.3 _
        R33=0.346410161513775   R22=0.288675134594813   CGOffset3=0   CGOffset2=0   EccV2=0   EccV3=0   Cw=0   Color=Green   FromFile=No   AMod=1   A2Mod=1   A3Mod=1   JMod=1   I2Mod=1   I3Mod=1   MMod=1   WMod=1
   SectionName=EB-1   Material=BTCT   Shape=Rectangular   t3=1   t2=1   Area=1   TorsConst=0.140833333333333   I33=0.0833333333333333   I22=0.0833333333333333   I23=0   AS2=0.833333333333333   AS3=0.833333333333333 _
        S33Top=0.166666666666667   S33Bot=0.166666666666667   S22Left=0.166666666666667   S22Right=0.166666666666667   Z33=0.25   Z22=0.25   R33=0.288675134594813   R22=0.288675134594813   CGOffset3=0   CGOffset2=0   EccV2=0   EccV3=0 _
        Cw=0   Color=Cyan   FromFile=No   AMod=1   A2Mod=1   A3Mod=1   JMod=1   I2Mod=1   I3Mod=1   MMod=1   WMod=1
   SectionName=LB   Material=BTCT   Shape=Rectangular   t3=0.7   t2=1   Area=0.7   TorsConst=0.0649211735083333   I33=0.0285833333333333   I22=0.0583333333333333   I23=0   AS2=0.583333333333333   AS3=0.583333333333333 _
        S33Top=0.0816666666666667   S33Bot=0.0816666666666667   S22Left=0.116666666666667   S22Right=0.116666666666667   Z33=0.1225   Z22=0.175   R33=0.202072594216369   R22=0.288675134594813   CGOffset3=0   CGOffset2=0   EccV2=0   EccV3=0 _
        Cw=0   Color=Blue   FromFile=No   AMod=1   A2Mod=1   A3Mod=1   JMod=1   I2Mod=1   I3Mod=1   MMod=1   WMod=1
   SectionName=Piles   Material=BTCTCOC   Shape=Pipe   t3=0.5   tw=0.08   Area=0.105557513160617   TorsConst=0.0048239783514402   I33=0.0024119891757201   I22=0.0024119891757201   I23=0   AS2=0.054040086087829   AS3=0.054040086087829 _
        S33Top=0.0096479567028804   S33Bot=0.0096479567028804   S22Left=0.0096479567028804   S22Right=0.0096479567028804   Z33=0.0142826666666667   Z22=0.0142826666666667   R33=0.15116216457831   R22=0.15116216457831   CGOffset3=0 _
        CGOffset2=0   EccV2=0   EccV3=0   Cw=0   Color=Red   FromFile=No   AMod=1   A2Mod=1   A3Mod=1   JMod=1   I2Mod=1   I3Mod=1   MMod=1   WMod=1
   SectionName=TB   Material=BTCT   Shape=Rectangular   t3=0.7   t2=1   Area=0.7   TorsConst=0.0649211735083333   I33=0.0285833333333333   I22=0.0583333333333333   I23=0   AS2=0.583333333333333   AS3=0.583333333333333 _
        S33Top=0.0816666666666667   S33Bot=0.0816666666666667   S22Left=0.116666666666667   S22Right=0.116666666666667   Z33=0.1225   Z22=0.175   R33=0.202072594216369   R22=0.288675134594813   CGOffset3=0   CGOffset2=0   EccV2=0   EccV3=0 _
        Cw=0   Color=Gray8Dark   FromFile=No   AMod=1   A2Mod=1   A3Mod=1   JMod=1   I2Mod=1   I3Mod=1   MMod=1   WMod=1
 
TABLE:  "FRAME SECTION PROPERTIES 02 - CONCRETE COLUMN"
   SectionName=EB   RebarMatL=A706   RebarMatC=A706   ReinfConfig=Rectangular   LatReinf=Ties   Cover=0.05   NumBars3Dir=2   NumBars2Dir=2   BarSizeL=12d   BarSizeC=10d   SpacingC=0.1   NumCBars2=2   NumCBars3=2   ReinfType=Design
   SectionName=EB-1   RebarMatL=A706   RebarMatC=A706   ReinfConfig=Rectangular   LatReinf=Ties   Cover=0.05   NumBars3Dir=2   NumBars2Dir=2   BarSizeL=12d   BarSizeC=10d   SpacingC=0.1   NumCBars2=2   NumCBars3=2   ReinfType=Design
   SectionName=LB   RebarMatL=A706   RebarMatC=A706   ReinfConfig=Rectangular   LatReinf=Ties   Cover=0.05   NumBars3Dir=2   NumBars2Dir=2   BarSizeL=12d   BarSizeC=10d   SpacingC=0.1   NumCBars2=2   NumCBars3=2   ReinfType=Design
   SectionName=TB   RebarMatL=A706   RebarMatC=A706   ReinfConfig=Rectangular   LatReinf=Ties   Cover=0.05   NumBars3Dir=2   NumBars2Dir=2   BarSizeL=12d   BarSizeC=10d   SpacingC=0.1   NumCBars2=2   NumCBars3=2   ReinfType=Design
 
TABLE:  "FRAME SECTION PROPERTIES 13 - TIME DEPENDENT"
   SectionName=EB   TypeSize=Auto   AutoSFSize=1
   SectionName=EB-1   TypeSize=Auto   AutoSFSize=1
   SectionName=LB   TypeSize=Auto   AutoSFSize=1
   SectionName=Piles   TypeSize=Auto   AutoSFSize=1
   SectionName=TB   TypeSize=Auto   AutoSFSize=1
 
TABLE:  "FUNCTION - PLOT FUNCTIONS"
   PlotFunc="Input Energy"   Type=Energy   Component=Input   Mode=All
 
TABLE:  "FUNCTION - POWER SPECTRAL DENSITY - USER"
   Name=UNIFPSD   Frequency=0   Value=1
   Name=UNIFPSD   Frequency=1   Value=1
 
TABLE:  "FUNCTION - RESPONSE SPECTRUM - USER"
   Name=UNIFRS   Period=0   Accel=1   FuncDamp=0.05
   Name=UNIFRS   Period=1   Accel=1
 
TABLE:  "FUNCTION - STEADY STATE - USER"
   Name=UNIFSS   Frequency=0   Value=1
   Name=UNIFSS   Frequency=1   Value=1
 
TABLE:  "FUNCTION - TIME HISTORY - USER"
   Name=RAMPTH   Time=0   Value=0
   Name=RAMPTH   Time=1   Value=1
   Name=RAMPTH   Time=4   Value=1
   Name=UNIFTH   Time=0   Value=1
   Name=UNIFTH   Time=1   Value=1
 
TABLE:  "GRID LINES"
   CoordSys=GLOBAL   AxisDir=X   GridID=A   XRYZCoord=-10   LineType=Primary   LineColor=Gray8Dark   Visible=Yes   BubbleLoc=End   AllVisible=Yes   BubbleSize=0.9375
   CoordSys=GLOBAL   AxisDir=X   GridID=B   XRYZCoord=-9   LineType=Primary   LineColor=Gray8Dark   Visible=Yes   BubbleLoc=End
   CoordSys=GLOBAL   AxisDir=X   GridID=C   XRYZCoord=-4.5   LineType=Primary   LineColor=Gray8Dark   Visible=Yes   BubbleLoc=End
   CoordSys=GLOBAL   AxisDir=X   GridID=D   XRYZCoord=0   LineType=Primary   LineColor=Gray8Dark   Visible=Yes   BubbleLoc=End
   CoordSys=GLOBAL   AxisDir=X   GridID=E   XRYZCoord=4.5   LineType=Primary   LineColor=Gray8Dark   Visible=Yes   BubbleLoc=End
   CoordSys=GLOBAL   AxisDir=X   GridID=F   XRYZCoord=9   LineType=Primary   LineColor=Gray8Dark   Visible=Yes   BubbleLoc=End
   CoordSys=GLOBAL   AxisDir=X   GridID=G   XRYZCoord=10   LineType=Primary   LineColor=Gray8Dark   Visible=Yes   BubbleLoc=End
   CoordSys=GLOBAL   AxisDir=Y   GridID=1   XRYZCoord=-5.2   LineType=Primary   LineColor=Gray8Dark   Visible=Yes   BubbleLoc=Start
   CoordSys=GLOBAL   AxisDir=Y   GridID=2   XRYZCoord=-4.2   LineType=Primary   LineColor=Gray8Dark   Visible=Yes   BubbleLoc=Start
   CoordSys=GLOBAL   AxisDir=Y   GridID=3   XRYZCoord=0   LineType=Primary   LineColor=Gray8Dark   Visible=Yes   BubbleLoc=Start
   CoordSys=GLOBAL   AxisDir=Y   GridID=4   XRYZCoord=4.2   LineType=Primary   LineColor=Gray8Dark   Visible=Yes   BubbleLoc=Start
   CoordSys=GLOBAL   AxisDir=Y   GridID=5   XRYZCoord=4.8   LineType=Primary   LineColor=Gray8Dark   Visible=Yes   BubbleLoc=Start
   CoordSys=GLOBAL   AxisDir=Z   GridID=Z1   XRYZCoord=0   LineType=Primary   LineColor=Gray8Dark   Visible=Yes   BubbleLoc=End
   CoordSys=GLOBAL   AxisDir=Z   GridID=Z2   XRYZCoord=13   LineType=Primary   LineColor=Gray8Dark   Visible=Yes   BubbleLoc=End
 
TABLE:  "GROUPS 1 - DEFINITIONS"
   GroupName=ALL   Selection=Yes   SectionCut=Yes   Steel=Yes   Concrete=Yes   Aluminum=Yes   ColdFormed=Yes   Stage=Yes   Bridge=Yes   AutoSeismic=No   AutoWind=No   SelDesSteel=No   SelDesAlum=No   SelDesCold=No   MassWeight=Yes   Color=Red
   GroupName=Pile   Selection=Yes   SectionCut=Yes   Steel=Yes   Concrete=Yes   Aluminum=Yes   ColdFormed=Yes   Stage=Yes   Bridge=Yes   AutoSeismic=No   AutoWind=No   SelDesSteel=No   SelDesAlum=No   SelDesCold=No   MassWeight=Yes   Color=Gray8Dark
   GroupName=DN   Selection=Yes   SectionCut=Yes   Steel=Yes   Concrete=Yes   Aluminum=Yes   ColdFormed=Yes   Stage=Yes   Bridge=Yes   AutoSeismic=No   AutoWind=No   SelDesSteel=No   SelDesAlum=No   SelDesCold=No   MassWeight=Yes   Color=Yellow
   GroupName=Pile_Toe   Selection=Yes   SectionCut=Yes   Steel=Yes   Concrete=Yes   Aluminum=Yes   ColdFormed=Yes   Stage=Yes   Bridge=Yes   AutoSeismic=No   AutoWind=No   SelDesSteel=No   SelDesAlum=No   SelDesCold=No   MassWeight=Yes   Color=Green
   GroupName=Pile_Bend   Selection=Yes   SectionCut=Yes   Steel=Yes   Concrete=Yes   Aluminum=Yes   ColdFormed=Yes   Stage=Yes   Bridge=Yes   AutoSeismic=No   AutoWind=No   SelDesSteel=No   SelDesAlum=No   SelDesCold=No   MassWeight=Yes   Color=Cyan
   GroupName=Beam   Selection=Yes   SectionCut=Yes   Steel=Yes   Concrete=Yes   Aluminum=Yes   ColdFormed=Yes   Stage=Yes   Bridge=Yes   AutoSeismic=No   AutoWind=No   SelDesSteel=No   SelDesAlum=No   SelDesCold=No   MassWeight=Yes   Color=Blue
   GroupName=Piles   Selection=Yes   SectionCut=Yes   Steel=Yes   Concrete=Yes   Aluminum=Yes   ColdFormed=Yes   Stage=Yes   Bridge=Yes   AutoSeismic=No   AutoWind=No   SelDesSteel=No   SelDesAlum=No   SelDesCold=No   MassWeight=Yes   Color=Magenta
   GroupName=Beams   Selection=Yes   SectionCut=Yes   Steel=Yes   Concrete=Yes   Aluminum=Yes   ColdFormed=Yes   Stage=Yes   Bridge=Yes   AutoSeismic=No   AutoWind=No   SelDesSteel=No   SelDesAlum=No   SelDesCold=No   MassWeight=Yes   Color=Yellow
 
TABLE:  "GROUPS 2 - ASSIGNMENTS"
 
TABLE:  "JOINT COORDINATES"
   Joint=1   CoordSys=GLOBAL   CoordType=Cartesian   XorR=-8.4   Y=-5   Z=0   SpecialJt=No   GUID=47db2b34-cd97-44da-a9d7-f6146f21b459
   Joint=2   CoordSys=GLOBAL   CoordType=Cartesian   XorR=-8.4   Y=-4.5   Z=0   SpecialJt=No   GUID=e2269806-19e4-4c0e-abea-829976cefbd7
   Joint=3   CoordSys=GLOBAL   CoordType=Cartesian   XorR=-4.2   Y=-5   Z=0   SpecialJt=No   GUID=b35a7135-4050-45cf-9278-e02501ad5183
   Joint=4   CoordSys=GLOBAL   CoordType=Cartesian   XorR=-4.2   Y=-4.5   Z=0   SpecialJt=No   GUID=08d8ad43-b696-4b21-9c22-34d7705ee777
   Joint=5   CoordSys=GLOBAL   CoordType=Cartesian   XorR=0   Y=-5   Z=0   SpecialJt=No   GUID=7619d266-3c21-4d1c-b946-8e22e715aa05
   Joint=6   CoordSys=GLOBAL   CoordType=Cartesian   XorR=0   Y=-4.5   Z=0   SpecialJt=No   GUID=29d75c36-5773-46ba-adc1-5ed8cc068b80
   Joint=7   CoordSys=GLOBAL   CoordType=Cartesian   XorR=4.2   Y=-5   Z=0   SpecialJt=No   GUID=359c115b-f15d-41ba-bd67-3ea92cc14df4
   Joint=8   CoordSys=GLOBAL   CoordType=Cartesian   XorR=4.2   Y=-4.5   Z=0   SpecialJt=No   GUID=fe5398e8-2c3a-46fd-89ef-5191e63f809f
   Joint=9   CoordSys=GLOBAL   CoordType=Cartesian   XorR=8.4   Y=-5   Z=0   SpecialJt=No   GUID=2d1bf16c-a5c4-4405-9b00-c527858ffa4f
   Joint=10   CoordSys=GLOBAL   CoordType=Cartesian   XorR=8.4   Y=-4.5   Z=0   SpecialJt=No   GUID=00e5f572-36cb-4c77-a95f-3a2618d91b8d
   Joint=11   CoordSys=GLOBAL   CoordType=Cartesian   XorR=-8.4   Y=0   Z=0   SpecialJt=No   GUID=388261d9-d550-4e81-bab8-99ac507044ff
   Joint=12   CoordSys=GLOBAL   CoordType=Cartesian   XorR=-4.2   Y=0   Z=0   SpecialJt=No   GUID=f9fb5906-debc-4f2f-b0ed-3db9559233c8
   Joint=13   CoordSys=GLOBAL   CoordType=Cartesian   XorR=0   Y=0   Z=0   SpecialJt=No   GUID=a69ad553-219e-4113-a87c-d57309e919d5
   Joint=14   CoordSys=GLOBAL   CoordType=Cartesian   XorR=4.2   Y=0   Z=0   SpecialJt=No   GUID=5693090c-3f51-459f-812d-45159db30f2e
   Joint=15   CoordSys=GLOBAL   CoordType=Cartesian   XorR=8.4   Y=0   Z=0   SpecialJt=No   GUID=1612f22e-1f2b-4dc6-b3cc-3194ba7ba253
   Joint=16   CoordSys=GLOBAL   CoordType=Cartesian   XorR=-8.4   Y=4.5   Z=0   SpecialJt=No   GUID=eb23971f-838f-4516-9e03-f2298be89966
   Joint=17   CoordSys=GLOBAL   CoordType=Cartesian   XorR=-4.2   Y=4.5   Z=0   SpecialJt=No   GUID=b67ee8e6-b7f7-495d-9e7b-6c1668904225
   Joint=18   CoordSys=GLOBAL   CoordType=Cartesian   XorR=0   Y=4.5   Z=0   SpecialJt=No   GUID=73799928-c169-4047-9354-444c86a2fbcc
   Joint=19   CoordSys=GLOBAL   CoordType=Cartesian   XorR=4.2   Y=4.5   Z=0   SpecialJt=No   GUID=aa2be064-d0c5-4ef2-ade9-da14b3a1fa83
   Joint=20   CoordSys=GLOBAL   CoordType=Cartesian   XorR=8.4   Y=4.5   Z=0   SpecialJt=No   GUID=5ebd08fc-2314-470c-8eb9-fe0998d3bb5d
   Joint=21   CoordSys=GLOBAL   CoordType=Cartesian   XorR=-8.4   Y=5   Z=0   SpecialJt=No   GUID=5dc428a8-5408-4c61-94b8-044cac24c500
   Joint=22   CoordSys=GLOBAL   CoordType=Cartesian   XorR=-4.2   Y=5   Z=0   SpecialJt=No   GUID=18e14c19-8e9e-4b9c-8178-10a1d97e56dd
   Joint=23   CoordSys=GLOBAL   CoordType=Cartesian   XorR=0   Y=5   Z=0   SpecialJt=No   GUID=711656e3-a5c2-4f4f-8294-4f5109ae3a89
   Joint=24   CoordSys=GLOBAL   CoordType=Cartesian   XorR=4.2   Y=5   Z=0   SpecialJt=No   GUID=10185716-5343-4cd1-8b83-f4796a876c50
   Joint=25   CoordSys=GLOBAL   CoordType=Cartesian   XorR=8.4   Y=5   Z=0   SpecialJt=No   GUID=d62c6bc2-f761-4213-940c-2d2a5ba32d80
   Joint=26   CoordSys=GLOBAL   CoordType=Cartesian   XorR=-10   Y=-4.5   Z=0   SpecialJt=No   GUID=1760fc2e-53d6-4d73-ab17-623c45d6a99d
   Joint=27   CoordSys=GLOBAL   CoordType=Cartesian   XorR=-10   Y=0   Z=0   SpecialJt=No   GUID=e6fab500-ef28-4673-a6db-6a1cd8ef8193
   Joint=28   CoordSys=GLOBAL   CoordType=Cartesian   XorR=-10   Y=4.5   Z=0   SpecialJt=No   GUID=9885b3dc-d985-4205-986e-fec18cf6e0b2
   Joint=29   CoordSys=GLOBAL   CoordType=Cartesian   XorR=10   Y=-4.5   Z=0   SpecialJt=No   GUID=4b9c5bba-436a-4109-ad16-36e2b2a69771
   Joint=30   CoordSys=GLOBAL   CoordType=Cartesian   XorR=10   Y=0   Z=0   SpecialJt=No   GUID=2e89a2eb-7b0b-479a-be2d-2e2ad05c6e9c
   Joint=31   CoordSys=GLOBAL   CoordType=Cartesian   XorR=10   Y=4.5   Z=0   SpecialJt=No   GUID=09bdec5e-0ee1-47c8-9a5f-7e64a4c8b436
   Joint=32   CoordSys=GLOBAL   CoordType=Cartesian   XorR=-8.4   Y=-4.5   Z=-3   SpecialJt=No   GUID=2df35c2e-ff80-47b5-ba98-a8bac2e1ff38
   Joint=33   CoordSys=GLOBAL   CoordType=Cartesian   XorR=-8.4   Y=-4.5   Z=-14.4449607588658   SpecialJt=No   GUID=d4301963-ab16-4171-ab35-062621161c3f
   Joint=34   CoordSys=GLOBAL   CoordType=Cartesian   XorR=-8.4   Y=-4.5   Z=-38   SpecialJt=No   GUID=cee38181-c7ca-4c33-936b-d3e4902f152d
   Joint=35   CoordSys=GLOBAL   CoordType=Cartesian   XorR=-4.2   Y=-4.5   Z=-3   SpecialJt=No   GUID=97a4f056-111d-422b-a648-f311fb3b0627
   Joint=36   CoordSys=GLOBAL   CoordType=Cartesian   XorR=-4.2   Y=-4.5   Z=-14.4449607588658   SpecialJt=No   GUID=ed75f546-1a52-44ea-a950-8c67739e0b9c
   Joint=37   CoordSys=GLOBAL   CoordType=Cartesian   XorR=-4.2   Y=-4.5   Z=-38   SpecialJt=No   GUID=a2e2dc98-9d4d-47cb-86bc-a4203dd47c67
   Joint=38   CoordSys=GLOBAL   CoordType=Cartesian   XorR=0   Y=-4.5   Z=-3   SpecialJt=No   GUID=f7f6877b-449d-4588-ba72-1546947c4d64
   Joint=39   CoordSys=GLOBAL   CoordType=Cartesian   XorR=0   Y=-4.5   Z=-14.4449607588658   SpecialJt=No   GUID=a21699fa-1730-4f94-9991-1192ba892b26
   Joint=40   CoordSys=GLOBAL   CoordType=Cartesian   XorR=0   Y=-4.5   Z=-38   SpecialJt=No   GUID=cb01e600-ec8e-4039-8b85-3455ab3bdc1b
   Joint=41   CoordSys=GLOBAL   CoordType=Cartesian   XorR=4.2   Y=-4.5   Z=-3   SpecialJt=No   GUID=d76c6b4d-2195-4525-8870-b0cc9a98133f
   Joint=42   CoordSys=GLOBAL   CoordType=Cartesian   XorR=4.2   Y=-4.5   Z=-14.4449607588658   SpecialJt=No   GUID=41a7bb4f-52f9-4997-b641-8fb5c863d734
   Joint=43   CoordSys=GLOBAL   CoordType=Cartesian   XorR=4.2   Y=-4.5   Z=-38   SpecialJt=No   GUID=921b1500-648e-44ae-94d8-6cd118922013
   Joint=44   CoordSys=GLOBAL   CoordType=Cartesian   XorR=8.4   Y=-4.5   Z=-3   SpecialJt=No   GUID=05f3925c-8b4d-4834-8cc5-4679570c8302
   Joint=45   CoordSys=GLOBAL   CoordType=Cartesian   XorR=8.4   Y=-4.5   Z=-14.4449607588658   SpecialJt=No   GUID=50bd3cd5-8ec5-40a3-ac01-09849730f416
   Joint=46   CoordSys=GLOBAL   CoordType=Cartesian   XorR=8.4   Y=-4.5   Z=-38   SpecialJt=No   GUID=5e9cb519-0ce9-44ff-a7d0-ad386a60523d
   Joint=47   CoordSys=GLOBAL   CoordType=Cartesian   XorR=-8.4   Y=0   Z=-14.4449607588658   SpecialJt=No   GUID=7d4c4b58-8d5d-47b3-b337-3636ebb732c6
   Joint=48   CoordSys=GLOBAL   CoordType=Cartesian   XorR=-8.4   Y=0   Z=-38   SpecialJt=No   GUID=1976d494-6198-4d85-917a-2adf46f2971e
   Joint=49   CoordSys=GLOBAL   CoordType=Cartesian   XorR=-4.2   Y=0   Z=-14.4449607588658   SpecialJt=No   GUID=51963aa8-5185-4137-9d82-0cf7824ab334
   Joint=50   CoordSys=GLOBAL   CoordType=Cartesian   XorR=-4.2   Y=0   Z=-38   SpecialJt=No   GUID=346e9431-ad5b-4eb5-8790-f1396a2f1ec1
   Joint=51   CoordSys=GLOBAL   CoordType=Cartesian   XorR=0   Y=0   Z=-14.4449607588658   SpecialJt=No   GUID=3a27e738-84bd-4ed3-9537-5c78639acb74
   Joint=52   CoordSys=GLOBAL   CoordType=Cartesian   XorR=0   Y=0   Z=-38   SpecialJt=No   GUID=40480e8c-fa0b-46a0-bd13-4aa31fc8b9cf
   Joint=53   CoordSys=GLOBAL   CoordType=Cartesian   XorR=4.2   Y=0   Z=-14.4449607588658   SpecialJt=No   GUID=b752eda1-61bc-458a-97bb-dc6b51bf444a
   Joint=54   CoordSys=GLOBAL   CoordType=Cartesian   XorR=4.2   Y=0   Z=-38   SpecialJt=No   GUID=86b47292-e4a5-4723-b7f4-e9e5d7e27e88
   Joint=55   CoordSys=GLOBAL   CoordType=Cartesian   XorR=8.4   Y=0   Z=-14.4449607588658   SpecialJt=No   GUID=7c7696c9-9528-40fd-9a99-c9e68f52b071
   Joint=56   CoordSys=GLOBAL   CoordType=Cartesian   XorR=8.4   Y=0   Z=-38   SpecialJt=No   GUID=bf7ee40d-a704-484f-9ee8-3f8cc1bc4130
   Joint=57   CoordSys=GLOBAL   CoordType=Cartesian   XorR=-8.4   Y=4.5   Z=-14.4449607588658   SpecialJt=No   GUID=353418eb-f0d0-4460-aada-5e140fa46eca
   Joint=58   CoordSys=GLOBAL   CoordType=Cartesian   XorR=-8.4   Y=4.5   Z=-38   SpecialJt=No   GUID=8881c13c-092f-4845-b270-36c038b7b4b2
   Joint=59   CoordSys=GLOBAL   CoordType=Cartesian   XorR=-4.2   Y=4.5   Z=-14.4449607588658   SpecialJt=No   GUID=def44283-9ada-4403-a088-3a8710c68d2d
   Joint=60   CoordSys=GLOBAL   CoordType=Cartesian   XorR=-4.2   Y=4.5   Z=-38   SpecialJt=No   GUID=9a035cbe-4395-4600-ba74-01f16bd88b20
   Joint=61   CoordSys=GLOBAL   CoordType=Cartesian   XorR=0   Y=4.5   Z=-14.4449607588658   SpecialJt=No   GUID=29fbcfa8-ec8a-46bc-9f1e-510d0658ffdd
   Joint=62   CoordSys=GLOBAL   CoordType=Cartesian   XorR=0   Y=4.5   Z=-38   SpecialJt=No   GUID=c5945b1c-e233-48a5-b9a1-c51071cb2272
   Joint=63   CoordSys=GLOBAL   CoordType=Cartesian   XorR=4.2   Y=4.5   Z=-14.4449607588658   SpecialJt=No   GUID=4ef04cbe-77eb-491a-9a0a-56b37ec23a0a
   Joint=64   CoordSys=GLOBAL   CoordType=Cartesian   XorR=4.2   Y=4.5   Z=-38   SpecialJt=No   GUID=84e52304-48cd-45e8-85d1-0e67d0c6db16
   Joint=65   CoordSys=GLOBAL   CoordType=Cartesian   XorR=8.4   Y=4.5   Z=-14.4449607588658   SpecialJt=No   GUID=a0b7f3d1-9cc9-43bd-b2fc-b9436c05bb9b
   Joint=66   CoordSys=GLOBAL   CoordType=Cartesian   XorR=8.4   Y=4.5   Z=-38   SpecialJt=No   GUID=a325abde-dc9e-433c-ad86-a7a9a8c5d85a
   Joint=67   CoordSys=GLOBAL   CoordType=Cartesian   XorR=-10   Y=-5   Z=0   SpecialJt=No   GUID=2b851739-1368-4aab-81a5-5b3fc4fb14b6
   Joint=68   CoordSys=GLOBAL   CoordType=Cartesian   XorR=10   Y=-5   Z=0   SpecialJt=No   GUID=8ca143c6-3dcd-4976-acd1-82753d4bf67a
   Joint=69   CoordSys=GLOBAL   CoordType=Cartesian   XorR=-10   Y=5   Z=0   SpecialJt=No   GUID=82ebfbfd-5f86-4d2b-9de0-194c90d65507
   Joint=70   CoordSys=GLOBAL   CoordType=Cartesian   XorR=10   Y=5   Z=0   SpecialJt=No   GUID=d9159e11-70b4-4d6a-9922-933172e11777
 
TABLE:  "JOINT PATTERN DEFINITIONS"
   Pattern=Default
 
TABLE:  "JOINT RESTRAINT ASSIGNMENTS"
   Joint=33   U1=Yes   U2=Yes   U3=No   R1=Yes   R2=Yes   R3=Yes
   Joint=34   U1=No   U2=No   U3=Yes   R1=No   R2=No   R3=No
   Joint=36   U1=Yes   U2=Yes   U3=No   R1=Yes   R2=Yes   R3=Yes
   Joint=37   U1=No   U2=No   U3=Yes   R1=No   R2=No   R3=No
   Joint=39   U1=Yes   U2=Yes   U3=No   R1=Yes   R2=Yes   R3=Yes
   Joint=40   U1=No   U2=No   U3=Yes   R1=No   R2=No   R3=No
   Joint=42   U1=Yes   U2=Yes   U3=No   R1=Yes   R2=Yes   R3=Yes
   Joint=43   U1=No   U2=No   U3=Yes   R1=No   R2=No   R3=No
   Joint=45   U1=Yes   U2=Yes   U3=No   R1=Yes   R2=Yes   R3=Yes
   Joint=46   U1=No   U2=No   U3=Yes   R1=No   R2=No   R3=No
   Joint=47   U1=Yes   U2=Yes   U3=No   R1=Yes   R2=Yes   R3=Yes
   Joint=48   U1=No   U2=No   U3=Yes   R1=No   R2=No   R3=No
   Joint=49   U1=Yes   U2=Yes   U3=No   R1=Yes   R2=Yes   R3=Yes
   Joint=50   U1=No   U2=No   U3=Yes   R1=No   R2=No   R3=No
   Joint=51   U1=Yes   U2=Yes   U3=No   R1=Yes   R2=Yes   R3=Yes
   Joint=52   U1=No   U2=No   U3=Yes   R1=No   R2=No   R3=No
   Joint=53   U1=Yes   U2=Yes   U3=No   R1=Yes   R2=Yes   R3=Yes
   Joint=54   U1=No   U2=No   U3=Yes   R1=No   R2=No   R3=No
   Joint=55   U1=Yes   U2=Yes   U3=No   R1=Yes   R2=Yes   R3=Yes
   Joint=56   U1=No   U2=No   U3=Yes   R1=No   R2=No   R3=No
   Joint=57   U1=Yes   U2=Yes   U3=No   R1=Yes   R2=Yes   R3=Yes
   Joint=58   U1=No   U2=No   U3=Yes   R1=No   R2=No   R3=No
   Joint=59   U1=Yes   U2=Yes   U3=No   R1=Yes   R2=Yes   R3=Yes
   Joint=60   U1=No   U2=No   U3=Yes   R1=No   R2=No   R3=No
   Joint=61   U1=Yes   U2=Yes   U3=No   R1=Yes   R2=Yes   R3=Yes
   Joint=62   U1=No   U2=No   U3=Yes   R1=No   R2=No   R3=No
   Joint=63   U1=Yes   U2=Yes   U3=No   R1=Yes   R2=Yes   R3=Yes
   Joint=64   U1=No   U2=No   U3=Yes   R1=No   R2=No   R3=No
   Joint=65   U1=Yes   U2=Yes   U3=No   R1=Yes   R2=Yes   R3=Yes
   Joint=66   U1=No   U2=No   U3=Yes   R1=No   R2=No   R3=No
 
TABLE:  "LOAD CASE DEFINITIONS"
   Case=DEAD   Type=LinStatic   InitialCond=Zero   DesTypeOpt="Prog Det"   DesignType=Dead   DesActOpt="Prog Det"   DesignAct=Non-Composite   AutoType=None   RunCase=Yes
   Case=MODAL   Type=LinModal   InitialCond=Zero   DesTypeOpt="Prog Det"   DesignType=Other   DesActOpt="Prog Det"   DesignAct=Other   AutoType=None   RunCase=Yes
   Case=LL   Type=LinStatic   InitialCond=Zero   DesTypeOpt="Prog Det"   DesignType=Live   DesActOpt="Prog Det"   DesignAct="Short-Term Composite"   AutoType=None   RunCase=Yes
 
TABLE:  "LOAD PATTERN DEFINITIONS"
   LoadPat=DEAD   DesignType=Dead   SelfWtMult=1
   LoadPat=LL   DesignType=Live   SelfWtMult=0
 
TABLE:  "MASS SOURCE"
   MassSource=MSSSRC1   Elements=Yes   Masses=Yes   Loads=No   IsDefault=Yes
 
TABLE:  "MATERIAL PROPERTIES 01 - GENERAL"
   Material=A706   Type=Rebar   SymType=Uniaxial   TempDepend=No   Color=Gray8Dark   GUID=30185aab-1311-4f4b-9ffe-ddad707d22d9   Notes="ASTM A706 added 8/23/2025 4:27:57 PM"
   Material=BTCT   Type=Concrete   SymType=Isotropic   TempDepend=No   Color=Blue   Notes="Concrete added 24-Feb-23 16:30:01"
   Material=BTCTCOC   Type=Concrete   SymType=Isotropic   TempDepend=No   Color=Blue   Notes="Concrete added 24-Feb-23 16:30:01"
   Material=Steel   Type=Steel   SymType=Isotropic   TempDepend=No   Color=Magenta   GUID=2f952889-4898-4964-97a4-5fb5c5008d33   Notes="Steel added 8/24/2025 2:51:43 PM"
   Material=Tendon   Type=Tendon   SymType=Uniaxial   TempDepend=No   Color=Yellow   GUID=7dfcd093-823e-4b3a-b96f-35d5bcaf456f   Notes="Tendon added 8/24/2025 2:51:43 PM"
 
TABLE:  "MATERIAL PROPERTIES 02 - BASIC MECHANICAL PROPERTIES"
   Material=A706   UnitWeight=7.84904757236607   UnitMass=0.800380070686609   E1=20389019.1580383   A1=1.16999994421006E-05
   Material=BTCT   UnitWeight=2.40276966501002   UnitMass=0.245014307353044   E1=2900000   G12=1208333.33333333   U12=0.2   A1=9.9E-06
   Material=BTCTCOC   UnitWeight=2.40276966501002   UnitMass=0.245014307353044   E1=3800000000   G12=1583333333.33333   U12=0.2   A1=9.9E-06
   Material=Steel   UnitWeight=7.84904757236607   UnitMass=0.800380070686609   E1=20389019.1580383   G12=7841930.44539935   U12=0.3   A1=1.17E-05
   Material=Tendon   UnitWeight=7.84904757236607   UnitMass=0.800380070686609   E1=20037484.3449687   A1=1.16999994421006E-05
 
TABLE:  "MATERIAL PROPERTIES 03A - STEEL DATA"
   Material=Steel   Fy=35153.4813069626   Fu=45699.5256990514   EffFy=38668.8294376589   EffFu=50269.4782689565   SSCurveOpt=Simple   SSHysType=Kinematic   SHard=0.015   SMax=0.11   SRup=0.17   FinalSlope=-0.1   CoupModType="Von Mises"
 
TABLE:  "MATERIAL PROPERTIES 03B - CONCRETE DATA"
   Material=BTCT   Fc=2812.27850455701   eFc=2812.27850455701   LtWtConc=No   SSCurveOpt=Mander   SSHysType=Takeda   SFc=0.002   SCap=0.005   FinalSlope=-0.1   FAngle=0   DAngle=0   CoupModType="Modified Darwin-Pecknold"
   Material=BTCTCOC   Fc=2812.27850455701   eFc=2812.27850455701   LtWtConc=No   SSCurveOpt=Mander   SSHysType=Takeda   SFc=0.002   SCap=0.005   FinalSlope=-0.1   FAngle=0   DAngle=0   CoupModType="Modified Darwin-Pecknold"
 
TABLE:  "MATERIAL PROPERTIES 03E - REBAR DATA"
   Material=A706   Fy=42184.1775683551   Fu=56245.5700911402   EffFy=46402.5953251907   EffFu=61870.1271002542   SSCurveOpt=Simple   SSHysType=Kinematic   SHard=0.011   SCap=0.11   FinalSlope=-0.1   UseCTDef=No   CoupModType="Von Mises"
 
TABLE:  "MATERIAL PROPERTIES 03F - TENDON DATA"
   Material=Tendon   Fy=172322.365366731   Fu=189828.799057598   SSCurveOpt="270 ksi"   SSHysType=Kinematic   FinalSlope=-0.1   CoupModType="Von Mises"
 
TABLE:  "MATERIAL PROPERTIES 03J - COUPLED NONLINEAR VON MISES DATA"
   Material=A706   YieldStress=46402.5953251907   LinIsoHard=No   LinKinHard=No   NLIsoSaHard=No
   Material=Steel   YieldStress=38668.8294376589   LinIsoHard=No   LinKinHard=No   NLIsoSaHard=No
   Material=Tendon   YieldStress=172322.365366731   LinIsoHard=No   LinKinHard=No   NLIsoSaHard=No
 
TABLE:  "MATERIAL PROPERTIES 06 - DAMPING PARAMETERS"
   Material=A706   ModalRatio=0   VisMass=0   VisStiff=0   HysMass=0   HysStiff=0
   Material=BTCT   ModalRatio=0   VisMass=0   VisStiff=0   HysMass=0   HysStiff=0
   Material=BTCTCOC   ModalRatio=0   VisMass=0   VisStiff=0   HysMass=0   HysStiff=0
   Material=Steel   ModalRatio=0   VisMass=0   VisStiff=0   HysMass=0   HysStiff=0
   Material=Tendon   ModalRatio=0   VisMass=0   VisStiff=0   HysMass=0   HysStiff=0
 
TABLE:  "MATERIAL PROPERTIES 09 - ACCEPTANCE CRITERIA"
   Material=A706   IOTens=0.01   LSTens=0.02   CPTens=0.05   IOComp=-0.005   LSComp=-0.01   CPComp=-0.02
   Material=BTCT   IOTens=0.01   LSTens=0.02   CPTens=0.05   IOComp=-0.003   LSComp=-0.006   CPComp=-0.015   IgnoreTens=Yes
   Material=BTCTCOC   IOTens=0.01   LSTens=0.02   CPTens=0.05   IOComp=-0.003   LSComp=-0.006   CPComp=-0.015   IgnoreTens=Yes
   Material=Steel   IOTens=0.01   LSTens=0.02   CPTens=0.05   IOComp=-0.005   LSComp=-0.01   CPComp=-0.02
   Material=Tendon   IOTens=0.015   LSTens=0.023   CPTens=0.03   IOComp=-0.015   LSComp=-0.023   CPComp=-0.03
 
TABLE:  "OPTIONS - COLORS - DISPLAY"
   DeviceType=Screen   Points=Blue   LinesFrame=Blue   LinesFrmDL=Blue   LinesCable=Green   LinesTendon=Green   SpringLinks=Green   Restraints=Green   Releases=Green   Axes=Cyan   Text=Black   ShadowLines=Gray8Dark   GuideLines=Gray8Dark _
        Highlight=Red   Selection=10504778   AreaFillBot=Red   AreaFillTop=16744703   AreaFillSd=Red   AreaEdge=DarkRed   SolidF1=Red   SolidF2=Blue   SolidF3=Green   SolidF4=Yellow   SolidF5=White   SolidF6=Cyan   SolidEdge=DarkRed _
        Floor=Gray4   Background=White   BGLowLeft=White   BGLowRight=White   BGUpRight=White   Darkness=0.5
   DeviceType=Printer   Points=Gray8Dark   LinesFrame=Black   LinesFrmDL=Gray4   LinesCable=Black   LinesTendon=Black   SpringLinks=Gray8Dark   Restraints=Gray8Dark   Releases=Gray4   Axes=Black   Text=Black   ShadowLines=Gray4 _
        GuideLines=Gray4   Highlight=Black   Selection=Black   AreaFillBot=Gray4   AreaFillTop=Gray8Dark   AreaFillSd=Gray4   AreaEdge=Black   SolidF1=Gray1Light   SolidF2=Gray2   SolidF3=Gray3   SolidF4=Gray4   SolidF5=Gray5 _
        SolidF6=Gray6   SolidEdge=Black   Floor=Gray4   Background=White   BGLowLeft=White   BGLowRight=White   BGUpRight=White   Darkness=0.5
   DeviceType="Color Printer"   Points=Blue   LinesFrame=Blue   LinesFrmDL=Blue   LinesCable=Green   LinesTendon=Green   SpringLinks=Green   Restraints=Green   Releases=Green   Axes=Cyan   Text=Black   ShadowLines=Gray8Dark _
        GuideLines=Gray8Dark   Highlight=Red   Selection=10504778   AreaFillBot=Red   AreaFillTop=16744703   AreaFillSd=Red   AreaEdge=DarkRed   SolidF1=Red   SolidF2=Blue   SolidF3=Green   SolidF4=Yellow   SolidF5=White   SolidF6=Cyan _
        SolidEdge=DarkRed   Floor=Gray4   Background=White   BGLowLeft=White   BGLowRight=White   BGUpRight=White   Darkness=0.5
 
TABLE:  "OPTIONS - COLORS - OUTPUT"
   DeviceType=Screen   Contour1=13107400   Contour2=6553828   Contour3=Red   Contour4=16639   Contour5=Orange   Contour6=43775   Contour7=54527   Contour8=Yellow   Contour9=65408   Contour10=Green   Contour11=8453888   Contour12=Cyan _
        Contour13=16755200   Contour14=16733440   Contour15=Blue   Transpare=0.5   Ratio1=Cyan   Ratio2=Green   Ratio3=Yellow   Ratio4=Orange   Ratio5=Red   RatioNotD=Gray4   RatioNotC=Red   RatioVal1=0.5   RatioVal2=0.7   RatioVal3=0.9 _
        RatioVal4=1   DFillPos=Blue   DFillNeg=Red   DFillRPos=Green   DFillRNeg=Green
   DeviceType=Printer   Contour1=Black   Contour2=3158064   Contour3=4210752   Contour4=5263440   Contour5=6316128   Contour6=7368816   Contour7=Gray8Dark   Contour8=Gray7   Contour9=Gray6   Contour10=Gray5   Contour11=Gray4 _
        Contour12=Gray3   Contour13=Gray2   Contour14=Gray1Light   Contour15=White   Transpare=0   Ratio1=Gray2   Ratio2=Gray4   Ratio3=Gray8Dark   Ratio4=4210752   Ratio5=Black   RatioNotD=Gray4   RatioNotC=Black   RatioVal1=0.5 _
        RatioVal2=0.7   RatioVal3=0.9   RatioVal4=1   DFillPos=Gray8Dark   DFillNeg=Gray8Dark   DFillRPos=4210752   DFillRNeg=4210752
   DeviceType="Color Printer"   Contour1=13107400   Contour2=6553828   Contour3=Red   Contour4=16639   Contour5=Orange   Contour6=43775   Contour7=54527   Contour8=Yellow   Contour9=65408   Contour10=Green   Contour11=8453888 _
        Contour12=Cyan   Contour13=16755200   Contour14=16733440   Contour15=Blue   Transpare=0   Ratio1=Cyan   Ratio2=Green   Ratio3=Yellow   Ratio4=Orange   Ratio5=Red   RatioNotD=Gray4   RatioNotC=Red   RatioVal1=0.5   RatioVal2=0.7 _
        RatioVal3=0.9   RatioVal4=1   DFillPos=Blue   DFillNeg=Red   DFillRPos=Green   DFillRNeg=Green
 
TABLE:  "OVERWRITES - CONCRETE DESIGN - CSA-A233-14"
   Frame=1   DesignSect="Program Determined"   FrameType="Program Determined"   RLLF=0   XLMajor=0   XLMinor=0   XKMajor=0   XKMinor=0   CmMajor=0   CmMinor=0   DbMajor=0   DbMinor=0   DsMajor=0   DsMinor=0   Rd=0   Ro=0   MaxAggSize=0
   Frame=2   DesignSect="Program Determined"   FrameType="Program Determined"   RLLF=0   XLMajor=0   XLMinor=0   XKMajor=0   XKMinor=0   CmMajor=0   CmMinor=0   DbMajor=0   DbMinor=0   DsMajor=0   DsMinor=0   Rd=0   Ro=0   MaxAggSize=0
   Frame=3   DesignSect="Program Determined"   FrameType="Program Determined"   RLLF=0   XLMajor=0   XLMinor=0   XKMajor=0   XKMinor=0   CmMajor=0   CmMinor=0   DbMajor=0   DbMinor=0   DsMajor=0   DsMinor=0   Rd=0   Ro=0   MaxAggSize=0
   Frame=4   DesignSect="Program Determined"   FrameType="Program Determined"   RLLF=0   XLMajor=0   XLMinor=0   XKMajor=0   XKMinor=0   CmMajor=0   CmMinor=0   DbMajor=0   DbMinor=0   DsMajor=0   DsMinor=0   Rd=0   Ro=0   MaxAggSize=0
   Frame=5   DesignSect="Program Determined"   FrameType="Program Determined"   RLLF=0   XLMajor=0   XLMinor=0   XKMajor=0   XKMinor=0   CmMajor=0   CmMinor=0   DbMajor=0   DbMinor=0   DsMajor=0   DsMinor=0   Rd=0   Ro=0   MaxAggSize=0
   Frame=6   DesignSect="Program Determined"   FrameType="Program Determined"   RLLF=0   XLMajor=0   XLMinor=0   XKMajor=0   XKMinor=0   CmMajor=0   CmMinor=0   DbMajor=0   DbMinor=0   DsMajor=0   DsMinor=0   Rd=0   Ro=0   MaxAggSize=0
   Frame=7   DesignSect="Program Determined"   FrameType="Program Determined"   RLLF=0   XLMajor=0   XLMinor=0   XKMajor=0   XKMinor=0   CmMajor=0   CmMinor=0   DbMajor=0   DbMinor=0   DsMajor=0   DsMinor=0   Rd=0   Ro=0   MaxAggSize=0
   Frame=8   DesignSect="Program Determined"   FrameType="Program Determined"   RLLF=0   XLMajor=0   XLMinor=0   XKMajor=0   XKMinor=0   CmMajor=0   CmMinor=0   DbMajor=0   DbMinor=0   DsMajor=0   DsMinor=0   Rd=0   Ro=0   MaxAggSize=0
   Frame=9   DesignSect="Program Determined"   FrameType="Program Determined"   RLLF=0   XLMajor=0   XLMinor=0   XKMajor=0   XKMinor=0   CmMajor=0   CmMinor=0   DbMajor=0   DbMinor=0   DsMajor=0   DsMinor=0   Rd=0   Ro=0   MaxAggSize=0
   Frame=10   DesignSect="Program Determined"   FrameType="Program Determined"   RLLF=0   XLMajor=0   XLMinor=0   XKMajor=0   XKMinor=0   CmMajor=0   CmMinor=0   DbMajor=0   DbMinor=0   DsMajor=0   DsMinor=0   Rd=0   Ro=0   MaxAggSize=0
   Frame=11   DesignSect="Program Determined"   FrameType="Program Determined"   RLLF=0   XLMajor=0   XLMinor=0   XKMajor=0   XKMinor=0   CmMajor=0   CmMinor=0   DbMajor=0   DbMinor=0   DsMajor=0   DsMinor=0   Rd=0   Ro=0   MaxAggSize=0
   Frame=12   DesignSect="Program Determined"   FrameType="Program Determined"   RLLF=0   XLMajor=0   XLMinor=0   XKMajor=0   XKMinor=0   CmMajor=0   CmMinor=0   DbMajor=0   DbMinor=0   DsMajor=0   DsMinor=0   Rd=0   Ro=0   MaxAggSize=0
   Frame=13   DesignSect="Program Determined"   FrameType="Program Determined"   RLLF=0   XLMajor=0   XLMinor=0   XKMajor=0   XKMinor=0   CmMajor=0   CmMinor=0   DbMajor=0   DbMinor=0   DsMajor=0   DsMinor=0   Rd=0   Ro=0   MaxAggSize=0
   Frame=14   DesignSect="Program Determined"   FrameType="Program Determined"   RLLF=0   XLMajor=0   XLMinor=0   XKMajor=0   XKMinor=0   CmMajor=0   CmMinor=0   DbMajor=0   DbMinor=0   DsMajor=0   DsMinor=0   Rd=0   Ro=0   MaxAggSize=0
   Frame=15   DesignSect="Program Determined"   FrameType="Program Determined"   RLLF=0   XLMajor=0   XLMinor=0   XKMajor=0   XKMinor=0   CmMajor=0   CmMinor=0   DbMajor=0   DbMinor=0   DsMajor=0   DsMinor=0   Rd=0   Ro=0   MaxAggSize=0
   Frame=16   DesignSect="Program Determined"   FrameType="Program Determined"   RLLF=0   XLMajor=0   XLMinor=0   XKMajor=0   XKMinor=0   CmMajor=0   CmMinor=0   DbMajor=0   DbMinor=0   DsMajor=0   DsMinor=0   Rd=0   Ro=0   MaxAggSize=0
   Frame=17   DesignSect="Program Determined"   FrameType="Program Determined"   RLLF=0   XLMajor=0   XLMinor=0   XKMajor=0   XKMinor=0   CmMajor=0   CmMinor=0   DbMajor=0   DbMinor=0   DsMajor=0   DsMinor=0   Rd=0   Ro=0   MaxAggSize=0
   Frame=18   DesignSect="Program Determined"   FrameType="Program Determined"   RLLF=0   XLMajor=0   XLMinor=0   XKMajor=0   XKMinor=0   CmMajor=0   CmMinor=0   DbMajor=0   DbMinor=0   DsMajor=0   DsMinor=0   Rd=0   Ro=0   MaxAggSize=0
   Frame=19   DesignSect="Program Determined"   FrameType="Program Determined"   RLLF=0   XLMajor=0   XLMinor=0   XKMajor=0   XKMinor=0   CmMajor=0   CmMinor=0   DbMajor=0   DbMinor=0   DsMajor=0   DsMinor=0   Rd=0   Ro=0   MaxAggSize=0
   Frame=20   DesignSect="Program Determined"   FrameType="Program Determined"   RLLF=0   XLMajor=0   XLMinor=0   XKMajor=0   XKMinor=0   CmMajor=0   CmMinor=0   DbMajor=0   DbMinor=0   DsMajor=0   DsMinor=0   Rd=0   Ro=0   MaxAggSize=0
# ... 27 like lines cut
 
TABLE:  "PREFERENCES - ALUMINUM DESIGN - AA 2015"
   THDesign=Envelopes   SRatioLimit=1   Provision=ASD   LatFact=1.33333333333333   UseLatFact=No   Bridge=No   OmegaTy=1.65   OmegaTr=1.95   OmegaC=1.65   OmegaBo=1.65   OmegaBr=1.95   OmegaVo=1.65   OmegaVr=1.95
 
TABLE:  "PREFERENCES - COLD FORMED DESIGN - AISI-ASD96"
   THDesign=Envelopes   FrameType="Braced Frame"   SRatioLimit=1   MaxIter=1   OmegaBS=1.67   OmegaBUS=1.67   OmegaBLTB=1.67   OmegaVS=1.67   OmegaVNS=1.5   OmegaT=1.67   OmegaC=1.8
 
TABLE:  "PREFERENCES - CONCRETE DESIGN - CSA-A233-14"
   THDesign=Envelopes   NumCurves=24   NumPoints=11   MinEccen=Yes   BCCDesign=Yes   CTorsion=Yes   PatLLF=0.75   UFLimit=0.95   PhiS=0.85   PhiC=0.65
 
TABLE:  "PREFERENCES - CONCRETE SHELL DESIGN - EUROCODE 2-2004"
   Country="CEN Default"   GammaS=1.15   GammaC=1.5   AlphaCC=1
 
TABLE:  "PREFERENCES - DIMENSIONAL"
   MergeTol=0.001   FineGrid=0.25   Nudge=0.25   SelectTol=3   SnapTol=12   SLineThick=1   PLineThick=4   MaxFont=8   MinFont=3   AutoZoom=10   ShrinkFact=70   TextFileLen=240
 
TABLE:  "PREFERENCES - STEEL DESIGN - AISC 360-10"
   THDesign=Envelopes   FrameType=SMF   PatLLF=0.75   SRatioLimit=0.95   MaxIter=1   SDC=D   SeisCode=No   SeisLoad=No   ImpFactor=1   SystemRho=1   SystemSds=0.5   SystemR=8   SystemCd=5.5   Omega0=3   Provision=LRFD _
        AMethod="Direct Analysis"   SOMethod="General 2nd Order"   SRMethod="Tau-b Fixed"   NLCoeff=0.002   PhiB=0.9   PhiC=0.9   PhiTY=0.9   PhiTF=0.75   PhiV=0.9   PhiVRolledI=1   PhiVT=0.9   PlugWeld=Yes   HSSWelding=ERW   HSSReduceT=No _
        CheckDefl=No   DLRat=120   SDLAndLLRat=120   LLRat=360   TotalRat=240   NetRat=240
 
TABLE:  "PROGRAM CONTROL"
   ProgramName=SAP2000   Version=24.0.0   CurrUnits="Tonf, m, C"   SteelCode="AISC 360-10"   ConcCode="CSA A23.3-14"   AlumCode="AA 2015"   ColdCode=AISI-ASD96   RegenHinge=Yes
 
TABLE:  "PROJECT INFORMATION"
   Item="Company Name"   Data=po
   Item="Client Name"
   Item="Project Name"
   Item="Project Number"
   Item="Model Name"
   Item="Model Description"
   Item="Revision Number"
   Item="Frame Type"
   Item=Engineer
   Item=Checker
   Item=Supervisor
   Item="Issue Code"
   Item="Design Code"
 
TABLE:  "REBAR SIZES"
   RebarID=#2   Area=3.2258E-05   Diameter=0.00635
   RebarID=#3   Area=7.09675996154547E-05   Diameter=0.009525
   RebarID=#4   Area=0.000129032001922727   Diameter=0.0127
   RebarID=#5   Area=0.000199999601538181   Diameter=0.015875
   RebarID=#6   Area=0.000283870398461819   Diameter=0.01905
   RebarID=#7   Area=0.000387096015381813   Diameter=0.022225
   RebarID=#8   Area=0.000509676413843632   Diameter=0.0254
   RebarID=#9   Area=0.00064516   Diameter=0.0286512005329132
   RebarID=#10   Area=0.00081935318769455   Diameter=0.0322579995155334
   RebarID=#11   Area=0.00100644956308365   Diameter=0.0358139991521835
   RebarID=#14   Area=0.00145161   Diameter=0.0430021989583969
   RebarID=#18   Area=0.00258064   Diameter=0.0573277992248535
   RebarID=10M   Area=0.000100000004162606   Diameter=0.0113000003604438
   RebarID=15M   Area=0.000200000008325212   Diameter=0.0160000002402959
   RebarID=20M   Area=0.000300000012487818   Diameter=0.0195000002928606
   RebarID=25M   Area=0.000500000020813031   Diameter=0.0252000011414055
   RebarID=30M   Area=0.000700000029138243   Diameter=0.0299000000675832
   RebarID=35M   Area=0.00100000004162606   Diameter=0.0357000012990997
   RebarID=45M   Area=0.00150000006243909   Diameter=0.0437000014192476
   RebarID=55M   Area=0.00250000010406515   Diameter=0.056400002372922
   RebarID=6d   Area=2.83000004150781E-05   Diameter=0.00600000009011096
   RebarID=8d   Area=5.03000013308514E-05   Diameter=0.00800000012014795
   RebarID=10d   Area=7.85000032676458E-05   Diameter=0.0100000001501849
   RebarID=12d   Area=0.000113000004703745   Diameter=0.0120000001802219
   RebarID=14d   Area=0.000154000006410413   Diameter=0.0140000002102589
   RebarID=16d   Area=0.000201000008366838   Diameter=0.0160000002402959
   RebarID=20d   Area=0.000314000013070583   Diameter=0.0200000003003699
   RebarID=25d   Area=0.000491000020438396   Diameter=0.0250000003754623
   RebarID=26d   Area=0.000531000022103439   Diameter=0.0260000003904808
   RebarID=28d   Area=0.000616000025641654   Diameter=0.0280000004205178
   RebarID=N12   Area=0.000113000004703745   Diameter=0.0120000001802219
   RebarID=N16   Area=0.000201000008366838   Diameter=0.0160000002402959
   RebarID=N20   Area=0.000314000013070583   Diameter=0.0200000003003699
   RebarID=N24   Area=0.00045200001881498   Diameter=0.0240000003604438
   RebarID=N28   Area=0.000616000025641654   Diameter=0.0280000004205178
   RebarID=N32   Area=0.000804000033467353   Diameter=0.0320000004805918
   RebarID=N36   Area=0.00102000004245858   Diameter=0.0360000005406658
 
TABLE:  "SOLID PROPERTY DEFINITIONS"
   SolidProp=Solid1   Material=BTCT   MatAngleA=0   MatAngleB=0   MatAngleC=0   InComp=Yes   Color=Gray8Dark
 
END TABLE DATA
